*SPEF "1481-1998"
*DESIGN "up_down_counter_16bit"
*DATE "Mon Jun  2 17:03:03 2025"
*VENDOR "Synopsys, Inc."
*PROGRAM "icc2 /home/synopsys_install/icc2/W-2024.09/linux64/nwtn/bin/icc2_exec"
*VERSION "W-2024.09 Aug 25, 2024"
*DESIGN_FLOW "ICC2 SPEF DR"
*DIVIDER /
*DELIMITER :
*BUS_DELIMITER [ ]
*T_UNIT 1 NS
*C_UNIT 1 FF
*R_UNIT 1 OHM
*L_UNIT 1 HENRY

// XY_UNIT 1 UM
// PARASITIC_TECH p1 at 125.000 degree

*NAME_MAP
*1 Clock
*2 Reset
*3 Enable
*4 Up_Down
*5 Count[15]
*6 Count[14]
*7 Count[13]
*8 Count[12]
*9 Count[11]
*10 Count[10]
*11 Count[9]
*12 Count[8]
*13 Count[7]
*14 Count[6]
*15 Count[5]
*16 Count[4]
*17 Count[3]
*18 Count[2]
*19 Count[1]
*20 Count[0]
*21 VDD
*22 VSS
*23 Count_reg[15]
*24 Count_reg[14]
*25 Count_reg[13]
*26 Count_reg[12]
*27 Count_reg[11]
*28 Count_reg[10]
*29 Count_reg[9]
*30 Count_reg[8]
*31 Count_reg[7]
*32 Count_reg[6]
*33 Count_reg[5]
*34 Count_reg[4]
*35 Count_reg[3]
*36 Count_reg[2]
*37 Count_reg[1]
*38 Count_reg[0]
*39 HFSINV_69_0
*40 HFSINV_556_1
*41 ctosc_drc_inst_997
*42 ctosc_drc_inst_1112
*43 ctmTdsLR_1_285
*44 ctmTdsLR_1_1113
*45 ctmTdsLR_2_1114
*46 ctmTdsLR_1_1115
*47 ctmTdsLR_2_1116
*48 copt_h_inst_1117
*49 U36
*50 U38
*51 U39
*52 U40
*53 U41
*54 U42
*55 U43
*56 U44
*57 U45
*58 U46
*59 U47
*60 U48
*61 U49
*62 U50
*63 U51
*64 U52
*65 U53
*66 U54
*67 U55
*68 U56
*69 U57
*70 U58
*71 U59
*72 U60
*73 U61
*74 U62
*75 U63
*76 U64
*77 U65
*78 U66
*79 U67
*80 n4
*81 n5
*82 n6
*83 n7
*84 n8
*85 n9
*86 n10
*87 n11
*88 n12
*89 n13
*90 n14
*91 n15
*92 n16
*93 n17
*94 n18
*95 n19
*96 HFSNET_0
*97 HFSNET_1
*98 HFSNET_2
*99 ctosc_drc_0
*100 n25
*101 ctosc_drc_1
*102 tmp_net2
*103 tmp_net3
*104 n29
*105 n30
*106 n31
*107 copt_net_4
*108 n33
*109 n34
*110 n35
*111 n36
*112 n37
*113 n38
*114 n39
*115 n40
*116 n41
*117 n42
*118 n43
*119 n44
*120 n45
*121 n46
*122 n47
*123 n48
*124 n49
*125 n50
*126 n51
*127 n52
*128 n53
*129 n54
*130 n55
*131 n57
*132 n58
*133 n60
*134 n62
*135 n64

*PORTS

*1 I *C 0.143 11.208
*2 I *C 13.704 0.143
*3 I *C 8.232 0.143
*4 I *C 7.624 0.143
*5 O *C 10.360 0.143
*6 O *C 20.577 14.856
*7 O *C 20.577 12.424
*8 O *C 20.577 9.688
*9 O *C 20.577 6.952
*10 O *C 20.577 4.520
*11 O *C 20.577 18.808
*12 O *C 20.577 18.200
*13 O *C 10.968 23.793
*14 O *C 8.384 23.793
*15 O *C 5.344 23.793
*16 O *C 0.143 15.464
*17 O *C 0.143 12.424
*18 O *C 0.143 9.688
*19 O *C 0.143 6.040
*20 O *C 0.143 4.520
*21 I *C 10.360 11.968
*22 I *C 10.360 11.968

*D_NET *1 0.4971702 //LENGTH 5.707 LUMPCC 0 DR

*CONN
*P *1 I *L 0 *C 0.258 11.208
*I *42:A I *L 0.753714 *C 3.064 13.944
*N *1:2 *C 3.064 13.931
*N *1:3 *C 3.064 11.222
*N *1:4 *C 3.050 11.208

*CAP
0 *1 0.10443
1 *42:A 0.001
2 *1:2 0.1441248
3 *1:3 0.1455575
4 *1:4 0.1020578

*RES
0 *1 *1:4 4.986608
1 *1:2 *42:A 1
2 *1:3 *1:2 4.837501
3 *1:4 *1:3 0.5

*END

*D_NET *2 0.6228145 //LENGTH 7.819 LUMPCC 0 DR

*CONN
*P *2 I *L 0 *C 13.704 0.258
*I *39:A I *L 0.797938 *C 12.640 3.912
*I *43:A2 I *L 0.705404 *C 10.056 4.034
*N *2:3 *C 10.056 4.034
*N *2:4 *C 10.056 3.900
*N *2:5 *C 10.069 3.912
*N *2:6 *C 12.640 3.730
*N *2:7 *C 12.640 3.900
*N *2:8 *C 12.640 3.912
*N *2:9 *C 13.691 3.912
*N *2:10 *C 13.704 3.899

*CAP
0 *2 0.1381214
1 *39:A 0.001
2 *43:A2 0.001
3 *2:3 0.006533537
4 *2:4 0.003192661
5 *2:5 0.1108636
6 *2:6 0.01338438
7 *2:7 0.007207269
8 *2:8 0.1594992
9 *2:9 0.04626334
10 *2:10 0.1357492

*RES
0 *2 *2:10 6.500893
1 *2:10 *2:9 0.5
2 *2:9 *2:8 1.875893
3 *2:7 *39:A 1
4 *2:7 *2:6 0.2825
5 *2:8 *2:7 0.5
6 *2:8 *2:5 4.590179
7 *2:4 *2:3 0.2241667
8 *2:5 *2:4 0.5
9 *2:3 *43:A2 0.5

*END

*D_NET *3 0.6236442 //LENGTH 8.348 LUMPCC 0 DR

*CONN
*P *3 I *L 0 *C 8.232 0.258
*I *43:A1 I *L 0.605958 *C 9.751 3.912
*I *45:A1 I *L 0.564384 *C 11.728 3.608
*N *3:3 *C 11.728 3.607
*N *3:4 *C 11.728 3.014
*N *3:5 *C 11.715 3.000
*N *3:6 *C 9.690 3.912
*N *3:7 *C 9.690 3.912
*N *3:8 *C 9.752 3.014
*N *3:9 *C 9.752 3.000
*N *3:10 *C 8.245 3.000
*N *3:11 *C 8.232 2.986

*CAP
0 *3 0.1016771
1 *43:A1 0.02074197
2 *45:A1 0.001
3 *3:3 0.02454561
4 *3:4 0.02597829
5 *3:5 0.06818356
6 *3:6 0.01451577
7 *3:7 0.05194866
8 *3:8 0.04263681
9 *3:9 0.1218336
10 *3:10 0.05127783
11 *3:11 0.09930492

*RES
0 *3 *3:11 4.872321
1 *3:4 *3:3 1.059822
2 *3:5 *3:4 0.5
3 *3:3 *45:A1 1
4 *3:8 *3:7 1.604464
5 *3:9 *3:8 0.5
6 *3:9 *3:5 3.504464
7 *3:6 *43:A1 0.1916667
8 *3:7 *3:6 0.5
9 *3:11 *3:10 0.5
10 *3:10 *3:9 2.690179

*END

*D_NET *4 0.3145799 //LENGTH 4.385 LUMPCC 0 DR

*CONN
*P *4 I *L 0 *C 7.624 0.258
*I *40:A I *L 0.615434 *C 7.168 3.912
*N *4:2 *C 7.168 3.899
*N *4:3 *C 7.168 0.886
*N *4:4 *C 7.182 0.872
*N *4:5 *C 7.611 0.872
*N *4:6 *C 7.624 0.859

*CAP
0 *4 0.02738032
1 *40:A 0.001
2 *4:2 0.1150951
3 *4:3 0.1165278
4 *4:4 0.01478432
5 *4:5 0.01478432
6 *4:6 0.0250081

*RES
0 *4 *4:6 1.072321
1 *4:2 *40:A 1
2 *4:3 *4:2 5.380358
3 *4:4 *4:3 0.5
4 *4:6 *4:5 0.5
5 *4:5 *4:4 0.7660714

*END

*D_NET *5 1.211486 //LENGTH 14.533 LUMPCC 0 DR

*CONN
*I *23:Q O *L 0 *C 10.056 9.080
*I *49:A2 I *L 1.066784 *C 11.272 7.256
*I *50:A1 I *L 0.530816 *C 12.488 5.432
*P *5 O *L 0 *C 10.360 0.258
*N *5:4 *C 10.056 8.898
*N *5:5 *C 12.488 5.446
*N *5:6 *C 12.488 6.027
*N *5:7 *C 12.475 6.040
*N *5:8 *C 10.373 6.040
*N *5:9 *C 10.360 6.040
*N *5:10 *C 11.272 7.243
*N *5:11 *C 11.272 6.357
*N *5:12 *C 11.258 6.344
*N *5:13 *C 10.373 6.344
*N *5:14 *C 10.360 6.344
*N *5:15 *C 10.360 9.066
*N *5:16 *C 10.347 9.080
*N *5:17 *C 10.069 9.080
*N *5:18 *C 10.056 9.068

*CAP
0 *23:Q 0.001
1 *49:A2 0.001
2 *50:A1 0.001
3 *5 0.2373451
4 *5:4 0.01307656
5 *5:5 0.03296356
6 *5:6 0.03439623
7 *5:7 0.0928674
8 *5:8 0.0928674
9 *5:9 0.249191
10 *5:10 0.04887032
11 *5:11 0.050303
12 *5:12 0.0386087
13 *5:13 0.0386087
14 *5:14 0.1307515
15 *5:15 0.1165333
16 *5:16 0.01260188
17 *5:17 0.01260188
18 *5:18 0.006899441

*RES
0 *23:Q *5:18 1
1 *5:14 *5:13 0.5
2 *5:14 *5:9 0.5428572
3 *5:13 *5:12 1.580357
4 *5:11 *5:10 1.580357
5 *5:12 *5:11 0.5
6 *5:10 *49:A2 1
7 *5:9 *5:8 0.5
8 *5:9 *5 10.325
9 *5:8 *5:7 3.751786
10 *5:6 *5:5 1.0375
11 *5:7 *5:6 0.5
12 *5:5 *50:A1 1
13 *5:15 *5:14 4.861608
14 *5:16 *5:15 0.5
15 *5:18 *5:17 0.5
16 *5:18 *5:4 0.2825
17 *5:17 *5:16 0.4946429

*END

*D_NET *6 1.113632 //LENGTH 14.051 LUMPCC 0 DR

*CONN
*I *24:Q O *L 0 *C 18.416 13.640
*I *52:A1 I *L 0.530816 *C 12.032 12.120
*I *51:A I *L 1.976759 *C 10.816 12.576
*P *6 O *L 0 *C 20.462 14.856
*N *6:4 *C 18.430 14.856
*N *6:5 *C 18.416 14.843
*N *6:6 *C 10.816 12.562
*N *6:7 *C 10.816 12.133
*N *6:8 *C 10.830 12.120
*N *6:9 *C 12.019 12.120
*N *6:10 *C 12.032 12.133
*N *6:11 *C 12.032 14.235
*N *6:12 *C 12.046 14.248
*N *6:13 *C 18.402 14.248
*N *6:14 *C 18.416 14.248
*N *6:15 *C 18.416 13.654

*CAP
0 *24:Q 0.001
1 *52:A1 0.001
2 *51:A 0.001
3 *6 0.06769496
4 *6:4 0.06532275
5 *6:5 0.03171483
6 *6:6 0.03000085
7 *6:7 0.03143353
8 *6:8 0.0590509
9 *6:9 0.0590509
10 *6:10 0.09452122
11 *6:11 0.09832612
12 *6:12 0.2390302
13 *6:13 0.2390302
14 *6:14 0.06548787
15 *6:15 0.02996815

*RES
0 *24:Q *6:15 1
1 *6:5 *6:4 0.5
2 *6:4 *6 3.629464
3 *6:15 *6:14 1.061607
4 *6:14 *6:13 0.5
5 *6:14 *6:5 1.061607
6 *6:13 *6:12 11.35179
7 *6:11 *6:10 3.751786
8 *6:12 *6:11 0.5
9 *6:10 *52:A1 1
10 *6:10 *6:9 0.5
11 *6:9 *6:8 2.123214
12 *6:7 *6:6 0.7660714
13 *6:8 *6:7 0.5
14 *6:6 *51:A 1

*END

*D_NET *7 0.9580249 //LENGTH 10.594 LUMPCC 0 DR

*CONN
*I *25:Q O *L 0 *C 18.416 12.424
*I *54:A1 I *L 0.530816 *C 17.960 10.600
*I *53:A I *L 1.976759 *C 15.187 10.144
*P *7 O *L 0 *C 20.462 12.424
*N *7:4 *C 18.416 12.242
*N *7:5 *C 15.085 10.144
*N *7:6 *C 15.072 10.130
*N *7:7 *C 15.072 9.094
*N *7:8 *C 15.086 9.080
*N *7:9 *C 17.947 9.080
*N *7:10 *C 17.960 9.094
*N *7:11 *C 17.960 10.600
*N *7:12 *C 17.960 12.411
*N *7:13 *C 17.974 12.424
*N *7:14 *C 18.416 12.424
*N *7:15 *C 18.416 12.412

*CAP
0 *25:Q 0.001
1 *54:A1 0.001
2 *53:A 0.01252972
3 *7 0.0644965
4 *7:4 0.01227343
5 *7:5 0.01045432
6 *7:6 0.0614411
7 *7:7 0.06114428
8 *7:8 0.1296404
9 *7:9 0.1296404
10 *7:10 0.08271179
11 *7:11 0.1875896
12 *7:12 0.1039383
13 *7:13 0.01478612
14 *7:14 0.07928263
15 *7:15 0.006096317

*RES
0 *25:Q *7:15 1
1 *7:15 *7:14 0.5
2 *7:15 *7:4 0.2825
3 *7:14 *7:13 0.7901787
4 *7:14 *7 3.653572
5 *7:12 *7:11 3.233036
6 *7:13 *7:12 0.5
7 *7:11 *54:A1 1
8 *7:11 *7:10 2.690179
9 *7:10 *7:9 0.5
10 *7:9 *7:8 5.108929
11 *7:7 *7:6 1.851786
12 *7:8 *7:7 0.5
13 *7:5 *53:A 0.17
14 *7:6 *7:5 1

*END

*D_NET *8 1.254476 //LENGTH 15.605 LUMPCC 0 DR

*CONN
*I *26:Q O *L 0 *C 18.416 9.080
*I *56:A1 I *L 0.530816 *C 16.136 7.256
*P *8 O *L 0 *C 20.462 9.688
*I *55:A I *L 1.976759 *C 10.816 10.144
*N *8:4 *C 10.816 10.132
*N *8:5 *C 10.816 9.992
*N *8:6 *C 10.830 9.992
*N *8:7 *C 18.568 9.992
*N *8:8 *C 18.568 9.688
*N *8:9 *C 18.430 9.688
*N *8:10 *C 18.416 9.675
*N *8:11 *C 16.136 7.270
*N *8:12 *C 16.136 8.155
*N *8:13 *C 16.149 8.168
*N *8:14 *C 18.402 8.168
*N *8:15 *C 18.416 8.181
*N *8:16 *C 18.416 9.080

*CAP
0 *26:Q 0.001
1 *56:A1 0.001
2 *8 0.06317176
3 *55:A 0.001
4 *8:4 0.01618706
5 *8:5 0.01761974
6 *8:6 0.3255931
7 *8:7 0.3399483
8 *8:8 0.08329754
9 *8:9 0.005770653
10 *8:10 0.02475077
11 *8:11 0.04682143
12 *8:12 0.04825411
13 *8:13 0.09008202
14 *8:14 0.09008202
15 *8:15 0.03710371
16 *8:16 0.06279401

*RES
0 *26:Q *8:16 1
1 *8:10 *8:9 0.5
2 *8:9 *8:8 0.2473214
3 *8:16 *8:15 1.604464
4 *8:16 *8:10 1.061607
5 *8:15 *8:14 0.5
6 *8:14 *8:13 4.023214
7 *8:12 *8:11 1.580357
8 *8:13 *8:12 0.5
9 *8:11 *56:A1 1
10 *8:5 *8:4 0.2325
11 *8:6 *8:5 0.5
12 *8:4 *55:A 1
13 *8:7 *8:6 13.81875
14 *8:8 *8 3.382143
15 *8:8 *8:7 0.5428572

*END

*D_NET *9 1.082824 //LENGTH 12.857 LUMPCC 0 DR

*CONN
*I *27:Q O *L 0 *C 18.416 5.736
*I *57:A I *L 1.976759 *C 13.704 9.232
*P *9 O *L 0 *C 20.462 6.952
*I *58:A1 I *L 0.530816 *C 17.275 7.256
*N *9:4 *C 17.489 7.256
*N *9:5 *C 17.504 7.270
*N *9:6 *C 17.504 7.546
*N *9:7 *C 17.518 7.560
*N *9:8 *C 18.402 7.560
*N *9:9 *C 18.416 7.546
*N *9:10 *C 13.704 9.219
*N *9:11 *C 13.704 6.966
*N *9:12 *C 13.718 6.952
*N *9:13 *C 18.416 6.952
*N *9:14 *C 18.416 6.952
*N *9:15 *C 18.416 5.750

*CAP
0 *27:Q 0.001
1 *57:A 0.001
2 *9 0.06535833
3 *58:A1 0.01799611
4 *9:4 0.01592072
5 *9:5 0.02212327
6 *9:6 0.02182645
7 *9:7 0.03638945
8 *9:8 0.03638945
9 *9:9 0.02485404
10 *9:10 0.122262
11 *9:11 0.1236947
12 *9:12 0.2018295
13 *9:13 0.2671878
14 *9:14 0.07682532
15 *9:15 0.04816638

*RES
0 *27:Q *9:15 1
1 *9:14 *9:13 0.5
2 *9:14 *9:9 1.061607
3 *9:13 *9:12 8.390179
4 *9:13 *9 3.653571
5 *9:15 *9:14 2.147322
6 *9:9 *9:8 0.5
7 *9:8 *9:7 1.580357
8 *9:6 *9:5 0.4946429
9 *9:7 *9:6 0.5
10 *9:4 *58:A1 0.4280001
11 *9:5 *9:4 1
12 *9:11 *9:10 4.023214
13 *9:12 *9:11 0.5
14 *9:10 *57:A 1

*END

*D_NET *10 0.9028091 //LENGTH 11.734 LUMPCC 0 DR

*CONN
*I *28:Q O *L 0 *C 18.264 3.608
*I *59:A I *L 1.976759 *C 13.869 6.800
*I *60:A1 I *L 0.530816 *C 13.248 3.912
*P *10 O *L 0 *C 20.462 4.520
*N *10:4 *C 13.248 3.925
*N *10:5 *C 13.248 4.203
*N *10:6 *C 13.261 4.216
*N *10:7 *C 14.008 4.216
*N *10:8 *C 13.995 6.800
*N *10:9 *C 14.008 6.787
*N *10:10 *C 14.008 4.534
*N *10:11 *C 14.008 4.520
*N *10:12 *C 18.264 4.520
*N *10:13 *C 18.264 4.506
*N *10:14 *C 18.264 3.622

*CAP
0 *28:Q 0.001
1 *59:A 0.0143351
2 *60:A1 0.001
3 *10 0.06797317
4 *10:4 0.021651
5 *10:5 0.02308368
6 *10:6 0.03368627
7 *10:7 0.04844278
8 *10:8 0.0122597
9 *10:9 0.1043909
10 *10:10 0.1040941
11 *10:11 0.1707477
12 *10:12 0.2263365
13 *10:13 0.03762048
14 *10:14 0.0361878

*RES
0 *28:Q *10:14 1
1 *10:13 *10:12 0.5
2 *10:12 *10:11 7.6
3 *10:12 *10 3.925
4 *10:14 *10:13 1.580357
5 *10:10 *10:9 4.023214
6 *10:11 *10:10 0.5
7 *10:11 *10:7 0.5428572
8 *10:8 *59:A 0.2116667
9 *10:9 *10:8 1
10 *10:5 *10:4 0.4946429
11 *10:6 *10:5 0.5
12 *10:4 *60:A1 1
13 *10:7 *10:6 1.333036

*END

*D_NET *11 1.400636 //LENGTH 16.966 LUMPCC 0 DR

*CONN
*I *29:Q O *L 0 *C 18.416 15.768
*I *62:A1 I *L 0.530816 *C 13.552 12.120
*I *61:A I *L 1.976759 *C 11.272 13.488
*P *11 O *L 0 *C 20.462 18.808
*N *11:4 *C 18.582 18.808
*N *11:5 *C 18.568 18.794
*N *11:6 *C 18.568 15.768
*N *11:7 *C 11.272 13.488
*N *11:8 *C 11.272 13.628
*N *11:9 *C 11.286 13.640
*N *11:10 *C 13.551 12.120
*N *11:11 *C 13.400 12.120
*N *11:12 *C 13.400 13.627
*N *11:13 *C 13.400 13.640
*N *11:14 *C 18.251 13.640
*N *11:15 *C 18.264 13.654
*N *11:16 *C 18.264 15.160
*N *11:17 *C 18.416 15.160
*N *11:18 *C 18.416 15.768

*CAP
0 *29:Q 0.001
1 *62:A1 0.001
2 *61:A 0.001
3 *11 0.07122523
4 *11:4 0.06885302
5 *11:5 0.1375906
6 *11:6 0.148153
7 *11:7 0.009998115
8 *11:8 0.01143079
9 *11:9 0.0786074
10 *11:10 0.005053146
11 *11:11 0.0848949
12 *11:12 0.07366464
13 *11:13 0.2582095
14 *11:14 0.1772299
15 *11:15 0.08928853
16 *11:16 0.09973224
17 *11:17 0.04369545
18 *11:18 0.04000926

*RES
0 *29:Q *11:18 1
1 *11:5 *11:4 0.5
2 *11:4 *11 3.358036
3 *11:18 *11:17 1.085714
4 *11:18 *11:6 0.2714286
5 *11:15 *11:14 0.5
6 *11:14 *11:13 8.661608
7 *11:12 *11:11 2.690179
8 *11:13 *11:12 0.5
9 *11:13 *11:9 3.775893
10 *11:10 *62:A1 1
11 *11:8 *11:7 0.2325
12 *11:9 *11:8 0.5
13 *11:7 *61:A 1
14 *11:11 *11:10 0.2696429
15 *11:16 *11:15 2.690179
16 *11:17 *11:16 0.2714286
17 *11:6 *11:5 5.404465

*END

*D_NET *12 0.8518737 //LENGTH 9.789 LUMPCC 0 DR

*CONN
*I *30:Q O *L 0 *C 18.416 16.984
*I *63:A I *L 1.976759 *C 14.160 19.264
*P *12 O *L 0 *C 20.462 18.200
*I *64:A1 I *L 0.530816 *C 18.264 18.808
*N *12:4 *C 18.264 18.794
*N *12:5 *C 18.264 18.200
*N *12:6 *C 14.160 19.251
*N *12:7 *C 14.160 18.518
*N *12:8 *C 14.174 18.504
*N *12:9 *C 18.264 18.503
*N *12:10 *C 18.264 18.504
*N *12:11 *C 18.264 16.984
*N *12:12 *C 18.415 16.984

*CAP
0 *30:Q 0.001
1 *63:A 0.001
2 *12 0.08029855
3 *64:A1 0.001
4 *12:4 0.01554438
5 *12:5 0.09247524
6 *12:6 0.04257299
7 *12:7 0.04400567
8 *12:8 0.1867015
9 *12:9 0.1988782
10 *12:10 0.09655271
11 *12:11 0.08761252
12 *12:12 0.004231981

*RES
0 *30:Q *12:12 1
1 *12:12 *12:11 0.2696429
2 *12:4 *64:A1 1
3 *12:10 *12:9 0.5
4 *12:10 *12:4 0.5187501
5 *12:9 *12:8 7.304464
6 *12:9 *12:5 0.5410715
7 *12:7 *12:6 1.308929
8 *12:8 *12:7 0.5
9 *12:6 *63:A 1
10 *12:11 *12:10 2.714286
11 *12:5 *12 3.925

*END

*D_NET *13 1.363672 //LENGTH 15.163 LUMPCC 0 DR

*CONN
*I *31:Q O *L 0 *C 14.464 15.768
*I *65:A I *L 1.976759 *C 11.728 16.832
*P *13 O *L 0 *C 10.968 23.678
*I *66:A1 I *L 0.530816 *C 15.528 18.808
*N *13:4 *C 15.528 18.794
*N *13:5 *C 15.528 17.302
*N *13:6 *C 15.514 17.288
*N *13:7 *C 10.968 19.416
*N *13:8 *C 11.120 19.416
*N *13:9 *C 11.120 17.910
*N *13:10 *C 11.133 17.896
*N *13:11 *C 11.715 17.896
*N *13:12 *C 11.728 17.883
*N *13:13 *C 11.728 16.846
*N *13:14 *C 11.728 17.288
*N *13:15 *C 11.742 17.288
*N *13:16 *C 14.464 17.288
*N *13:17 *C 14.464 17.274
*N *13:18 *C 14.464 15.782

*CAP
0 *31:Q 0.001
1 *65:A 0.001
2 *13 0.1531917
3 *66:A1 0.001
4 *13:4 0.104684
5 *13:5 0.1061167
6 *13:6 0.04626117
7 *13:7 0.1607771
8 *13:8 0.0882863
9 *13:9 0.07832868
10 *13:10 0.02922401
11 *13:11 0.02922401
12 *13:12 0.03470133
13 *13:13 0.02193755
14 *13:14 0.06044377
15 *13:15 0.1253702
16 *13:16 0.1740036
17 *13:17 0.0747772
18 *13:18 0.07334452

*RES
0 *31:Q *13:18 1
1 *13:5 *13:4 2.666071
2 *13:6 *13:5 0.5
3 *13:4 *66:A1 1
4 *13:17 *13:16 0.5
5 *13:16 *13:15 4.861608
6 *13:16 *13:6 1.875893
7 *13:18 *13:17 2.666071
8 *13:14 *13:13 0.7901787
9 *13:14 *13:12 1.061607
10 *13:15 *13:14 0.5
11 *13:13 *65:A 1
12 *13:12 *13:11 0.5
13 *13:11 *13:10 1.0375
14 *13:9 *13:8 2.690179
15 *13:10 *13:9 0.5
16 *13:7 *13 7.610715
17 *13:8 *13:7 0.2714286

*END

*D_NET *14 0.9501404 //LENGTH 11.853 LUMPCC 0 DR

*CONN
*I *32:Q O *L 0 *C 10.512 15.768
*I *68:A1 I *L 0.530816 *C 10.208 17.288
*I *67:A I *L 1.976759 *C 9.904 19.264
*P *14 O *L 0 *C 8.384 23.678
*N *14:4 *C 8.384 19.430
*N *14:5 *C 8.398 19.416
*N *14:6 *C 9.904 19.264
*N *14:7 *C 9.904 19.404
*N *14:8 *C 9.904 19.416
*N *14:9 *C 10.347 19.416
*N *14:10 *C 10.360 19.402
*N *14:11 *C 10.360 16.680
*N *14:12 *C 10.208 17.274
*N *14:13 *C 10.208 16.680
*N *14:14 *C 10.222 16.680
*N *14:15 *C 10.498 16.680
*N *14:16 *C 10.512 16.666
*N *14:17 *C 10.512 15.782

*CAP
0 *32:Q 0.001
1 *68:A1 0.001
2 *67:A 0.001
3 *14 0.1492253
4 *14:4 0.146853
5 *14:5 0.05089797
6 *14:6 0.006239762
7 *14:7 0.007672441
8 *14:8 0.06770917
9 *14:9 0.01443898
10 *14:10 0.1361669
11 *14:11 0.1472494
12 *14:12 0.03977685
13 *14:13 0.04991989
14 *14:14 0.01507126
15 *14:15 0.01507126
16 *14:16 0.05114043
17 *14:17 0.04970775

*RES
0 *32:Q *14:17 1
1 *14:12 *68:A1 1
2 *14:13 *14:12 1.061607
3 *14:13 *14:11 0.2714286
4 *14:14 *14:13 0.5
5 *14:16 *14:15 0.5
6 *14:15 *14:14 0.4946429
7 *14:17 *14:16 1.580357
8 *14:10 *14:9 0.5
9 *14:9 *14:8 0.7901786
10 *14:7 *14:6 0.2325
11 *14:8 *14:7 0.5
12 *14:8 *14:5 2.690179
13 *14:6 *67:A 1
14 *14:4 *14 7.586608
15 *14:5 *14:4 0.5
16 *14:11 *14:10 4.861607

*END

*D_NET *15 0.8890715 //LENGTH 11.219 LUMPCC 0 DR

*CONN
*I *33:Q O *L 0 *C 5.648 19.112
*I *69:A I *L 1.976759 *C 6.864 19.264
*P *15 O *L 0 *C 5.344 23.678
*I *70:A1 I *L 0.530816 *C 8.232 17.288
*N *15:4 *C 8.232 17.302
*N *15:5 *C 8.232 17.883
*N *15:6 *C 8.219 17.896
*N *15:7 *C 5.662 17.896
*N *15:8 *C 5.648 17.910
*N *15:9 *C 5.344 19.112
*N *15:10 *C 6.864 19.252
*N *15:11 *C 6.864 19.112
*N *15:12 *C 6.851 19.112
*N *15:13 *C 5.662 19.112
*N *15:14 *C 5.648 19.099

*CAP
0 *33:Q 0.001
1 *69:A 0.001
2 *15 0.1598135
3 *70:A1 0.001
4 *15:4 0.036473
5 *15:5 0.03790568
6 *15:6 0.1169513
7 *15:7 0.1169513
8 *15:8 0.05565712
9 *15:9 0.1752547
10 *15:10 0.009249718
11 *15:11 0.0106824
12 *15:12 0.04991971
13 *15:13 0.04991971
14 *15:14 0.06729345

*RES
0 *33:Q *15:14 1
1 *15:14 *15:13 0.5
2 *15:14 *15:9 0.5428572
3 *15:14 *15:8 2.123215
4 *15:13 *15:12 2.123214
5 *15:11 *15:10 0.2325
6 *15:12 *15:11 0.5
7 *15:10 *69:A 1
8 *15:8 *15:7 0.5
9 *15:7 *15:6 4.566072
10 *15:5 *15:4 1.0375
11 *15:6 *15:5 0.5
12 *15:4 *70:A1 1
13 *15:9 *15 8.153572

*END

*D_NET *16 0.6807107 //LENGTH 8.686 LUMPCC 0 DR

*CONN
*I *34:Q O *L 0 *C 5.648 16.984
*I *71:A I *L 1.976759 *C 3.052 15.920
*P *16 O *L 0 *C 0.258 15.464
*I *72:A1 I *L 0.530816 *C 6.256 15.464
*N *16:4 *C 6.256 15.282
*N *16:5 *C 6.256 15.452
*N *16:6 *C 6.243 15.464
*N *16:7 *C 2.925 15.920
*N *16:8 *C 2.912 15.907
*N *16:9 *C 2.912 15.478
*N *16:10 *C 2.912 15.464
*N *16:11 *C 5.648 15.464
*N *16:12 *C 5.648 15.478
*N *16:13 *C 5.648 16.971

*CAP
0 *34:Q 0.001
1 *71:A 0.01349718
2 *16 0.08441281
3 *72:A1 0.001
4 *16:4 0.01739708
5 *16:5 0.01121996
6 *16:6 0.02563614
7 *16:7 0.01142178
8 *16:8 0.02540461
9 *16:9 0.02510779
10 *16:10 0.1816596
11 *16:11 0.1252552
12 *16:12 0.07956564
13 *16:13 0.07813296

*RES
0 *34:Q *16:13 1
1 *16:5 *72:A1 1
2 *16:5 *16:4 0.2825
3 *16:6 *16:5 0.5
4 *16:12 *16:11 0.5
5 *16:11 *16:10 4.885715
6 *16:11 *16:6 1.061607
7 *16:13 *16:12 2.666071
8 *16:9 *16:8 0.7660714
9 *16:10 *16:9 0.5
10 *16:10 *16 4.739285
11 *16:7 *71:A 0.2116667
12 *16:8 *16:7 1

*END

*D_NET *17 1.025196 //LENGTH 13.575 LUMPCC 0 DR

*CONN
*I *35:Q O *L 0 *C 10.056 13.640
*I *74:A1 I *L 0.530816 *C 4.115 10.600
*I *73:A I *L 1.976759 *C 2.912 12.576
*P *17 O *L 0 *C 0.258 12.424
*N *17:4 *C 2.912 12.564
*N *17:5 *C 2.912 12.424
*N *17:6 *C 2.912 12.424
*N *17:7 *C 3.989 10.600
*N *17:8 *C 3.976 10.614
*N *17:9 *C 3.976 12.411
*N *17:10 *C 3.976 12.424
*N *17:11 *C 10.043 12.424
*N *17:12 *C 10.056 12.438
*N *17:13 *C 10.056 13.627

*CAP
0 *35:Q 0.001
1 *74:A1 0.01569822
2 *73:A 0.001
3 *17 0.08958483
4 *17:4 0.0178692
5 *17:5 0.01930187
6 *17:6 0.124361
7 *17:7 0.01362282
8 *17:8 0.0812321
9 *17:9 0.08093528
10 *17:10 0.2578111
11 *17:11 0.2206627
12 *17:12 0.05177459
13 *17:13 0.05034191

*RES
0 *35:Q *17:13 1
1 *17:12 *17:11 0.5
2 *17:11 *17:10 10.83304
3 *17:13 *17:12 2.123214
4 *17:9 *17:8 3.208929
5 *17:10 *17:9 0.5
6 *17:10 *17:6 1.9
7 *17:7 *74:A1 0.2116667
8 *17:8 *17:7 1
9 *17:5 *17:4 0.2325
10 *17:6 *17:5 0.5
11 *17:6 *17 4.739285
12 *17:4 *73:A 1

*END

*D_NET *18 1.244383 //LENGTH 14.023 LUMPCC 0 DR

*CONN
*I *36:Q O *L 0 *C 8.992 10.296
*I *76:A1 I *L 0.530816 *C 5.179 8.776
*I *75:A I *L 1.976759 *C 2.912 9.232
*P *18 O *L 0 *C 0.258 9.688
*N *18:4 *C 8.992 10.114
*N *18:5 *C 0.480 9.688
*N *18:6 *C 0.480 9.992
*N *18:7 *C 2.912 9.245
*N *18:8 *C 5.053 8.776
*N *18:9 *C 5.040 8.790
*N *18:10 *C 5.040 9.370
*N *18:11 *C 5.027 9.384
*N *18:12 *C 2.925 9.384
*N *18:13 *C 2.912 9.398
*N *18:14 *C 2.912 9.979
*N *18:15 *C 2.912 9.993
*N *18:16 *C 2.912 10.296
*N *18:17 *C 8.979 10.296
*N *18:18 *C 8.992 10.284

*CAP
0 *36:Q 0.001
1 *76:A1 0.01563277
2 *75:A 0.001
3 *18 0.01077958
4 *18:4 0.01813419
5 *18:5 0.02127871
6 *18:6 0.1071501
7 *18:7 0.01134186
8 *18:8 0.01355737
9 *18:9 0.03063239
10 *18:10 0.03033557
11 *18:11 0.09677723
12 *18:12 0.09677723
13 *18:13 0.05605651
14 *18:14 0.04090975
15 *18:15 0.1067558
16 *18:16 0.294578
17 *18:17 0.2797287
18 *18:18 0.01195708

*RES
0 *36:Q *18:18 1
1 *18:18 *18:17 0.5
2 *18:18 *18:4 0.2825
3 *18:17 *18:16 10.83304
4 *18:14 *18:13 1.0375
5 *18:15 *18:14 0.5
6 *18:15 *18:6 4.342857
7 *18:7 *75:A 1
8 *18:13 *18:12 0.5
9 *18:13 *18:7 0.255
10 *18:12 *18:11 3.751786
11 *18:10 *18:9 1.0375
12 *18:11 *18:10 0.5
13 *18:8 *76:A1 0.2116667
14 *18:9 *18:8 1
15 *18:5 *18 0.3964286
16 *18:6 *18:5 0.5428572
17 *18:16 *18:15 0.5410715

*END

*D_NET *19 0.9892919 //LENGTH 11.295 LUMPCC 0 DR

*CONN
*I *37:Q O *L 0 *C 5.800 5.736
*I *77:A I *L 1.976759 *C 3.064 3.456
*P *19 O *L 0 *C 0.258 6.040
*I *78:A1 I *L 0.530816 *C 6.462 3.912
*N *19:4 *C 6.408 4.094
*N *19:5 *C 6.408 3.912
*N *19:6 *C 6.408 3.925
*N *19:7 *C 6.395 3.912
*N *19:8 *C 3.050 6.040
*N *19:9 *C 3.064 6.027
*N *19:10 *C 3.064 3.470
*N *19:11 *C 3.064 3.912
*N *19:12 *C 3.078 3.912
*N *19:13 *C 5.800 3.912
*N *19:14 *C 5.800 3.925
*N *19:15 *C 5.800 5.723

*CAP
0 *37:Q 0.001
1 *77:A 0.001
2 *19 0.102081
3 *78:A1 0.01029431
4 *19:4 0.02049588
5 *19:5 0.008218909
6 *19:6 0.01604827
7 *19:7 0.02640015
8 *19:8 0.09970881
9 *19:9 0.09645383
10 *19:10 0.02169244
11 *19:11 0.1219512
12 *19:12 0.1088243
13 *19:13 0.1375967
14 *19:14 0.1094794
15 *19:15 0.1080468

*RES
0 *37:Q *19:15 1
1 *19:6 *19:5 1
2 *19:6 *19:4 0.2825
3 *19:7 *19:6 0.5
4 *19:5 *78:A1 0.09166666
5 *19:14 *19:13 0.5
6 *19:13 *19:12 4.861608
7 *19:13 *19:7 1.061607
8 *19:15 *19:14 3.208929
9 *19:11 *19:10 0.7901786
10 *19:11 *19:9 3.775893
11 *19:12 *19:11 0.5
12 *19:10 *77:A 1
13 *19:9 *19:8 0.5
14 *19:8 *19 4.986608

*END

*D_NET *20 0.8657066 //LENGTH 10.201 LUMPCC 0 DR

*CONN
*I *38:Q O *L 0 *C 5.648 6.952
*I *77:CI I *L 1.474751 *C 2.912 4.064
*P *20 O *L 0 *C 0.258 4.520
*I *79:A1 I *L 0.530816 *C 6.408 5.432
*N *20:4 *C 6.407 5.432
*N *20:5 *C 2.912 4.078
*N *20:6 *C 2.912 4.506
*N *20:7 *C 2.912 4.520
*N *20:8 *C 6.243 4.520
*N *20:9 *C 6.256 4.534
*N *20:10 *C 6.256 5.432
*N *20:11 *C 6.243 5.432
*N *20:12 *C 5.662 5.432
*N *20:13 *C 5.648 5.446
*N *20:14 *C 5.648 6.939

*CAP
0 *38:Q 0.001
1 *77:CI 0.001
2 *20 0.08807755
3 *79:A1 0.001
4 *20:4 0.004880656
5 *20:5 0.03225184
6 *20:6 0.03368452
7 *20:7 0.226893
8 *20:8 0.1388154
9 *20:9 0.05868522
10 *20:10 0.06737077
11 *20:11 0.02502083
12 *20:12 0.02502083
13 *20:13 0.08171935
14 *20:14 0.08028667

*RES
0 *38:Q *20:14 1
1 *20:4 *79:A1 1
2 *20:10 *20:9 1.604465
3 *20:10 *20:4 0.2696429
4 *20:11 *20:10 0.5
5 *20:13 *20:12 0.5
6 *20:12 *20:11 1.0375
7 *20:14 *20:13 2.666071
8 *20:9 *20:8 0.5
9 *20:8 *20:7 5.947322
10 *20:6 *20:5 0.7660714
11 *20:7 *20:6 0.5
12 *20:7 *20 4.739285
13 *20:5 *77:CI 1

*END

*D_NET *80 0.7148985 //LENGTH 8.563 LUMPCC 0 DR

*CONN
*I *50:Y O *L 0 *C 11.576 5.888
*I *23:D I *L 0.558146 *C 6.682 8.624
*N *80:2 *C 6.423 8.624
*N *80:3 *C 6.408 8.611
*N *80:4 *C 6.408 8.181
*N *80:5 *C 6.421 8.168
*N *80:6 *C 11.562 8.168
*N *80:7 *C 11.576 8.155
*N *80:8 *C 11.576 5.902

*CAP
0 *50:Y 0.001
1 *23:D 0.02240793
2 *80:2 0.02033253
3 *80:3 0.03069757
4 *80:4 0.03040075
5 *80:5 0.2014902
6 *80:6 0.2014902
7 *80:7 0.104256
8 *80:8 0.1028233

*RES
0 *50:Y *80:8 1
1 *80:2 *23:D 0.5180001
2 *80:3 *80:2 1
3 *80:4 *80:3 0.7660714
4 *80:5 *80:4 0.5
5 *80:7 *80:6 0.5
6 *80:6 *80:5 9.180358
7 *80:8 *80:7 4.023214

*END

*D_NET *81 0.3851347 //LENGTH 3.776 LUMPCC 0 DR

*CONN
*I *52:Y O *L 0 *C 12.957 12.576
*I *24:D I *L 0.558146 *C 15.042 14.096
*N *81:2 *C 13.096 14.096
*N *81:3 *C 13.096 14.095
*N *81:4 *C 13.096 12.590
*N *81:5 *C 13.084 12.576

*CAP
0 *52:Y 0.0157778
1 *24:D 0.106773
2 *81:2 0.1118404
3 *81:3 0.06852054
4 *81:4 0.06852054
5 *81:5 0.0137024

*RES
0 *52:Y *81:5 0.2116667
1 *81:2 *24:D 3.892
2 *81:3 *81:2 1
3 *81:5 *81:4 1
4 *81:4 *81:3 2.688393

*END

*D_NET *82 0.4241742 //LENGTH 4.439 LUMPCC 0 DR

*CONN
*I *54:Y O *L 0 *C 17.048 10.144
*I *25:D I *L 0.558146 *C 15.072 11.968
*N *82:2 *C 15.072 11.968
*N *82:3 *C 15.072 12.107
*N *82:4 *C 15.086 12.120
*N *82:5 *C 17.035 12.120
*N *82:6 *C 17.048 12.107
*N *82:7 *C 17.048 10.158

*CAP
0 *54:Y 0.001
1 *25:D 0.001
2 *82:2 0.008959221
3 *82:3 0.0103919
4 *82:4 0.0777261
5 *82:5 0.0777261
6 *82:6 0.1244018
7 *82:7 0.1229691

*RES
0 *54:Y *82:7 1
1 *82:2 *25:D 1
2 *82:3 *82:2 0.2325
3 *82:4 *82:3 0.5
4 *82:6 *82:5 0.5
5 *82:5 *82:4 3.480357
6 *82:7 *82:6 3.480357

*END

*D_NET *83 0.3214238 //LENGTH 3.048 LUMPCC 0 DR

*CONN
*I *56:Y O *L 0 *C 15.194 6.800
*I *26:D I *L 0.558146 *C 15.042 8.624
*N *83:2 *C 14.631 8.624
*N *83:3 *C 14.616 8.611
*N *83:4 *C 14.616 6.814
*N *83:5 *C 14.631 6.800

*CAP
0 *56:Y 0.04607789
1 *26:D 0.03097164
2 *83:2 0.02889624
3 *83:3 0.08573776
4 *83:4 0.08573776
5 *83:5 0.0440025

*RES
0 *56:Y *83:5 1.126
1 *83:2 *26:D 0.822
2 *83:3 *83:2 1
3 *83:5 *83:4 1
4 *83:4 *83:3 3.208929

*END

*D_NET *84 0.3750057 //LENGTH 4.890 LUMPCC 0 DR

*CONN
*I *58:Y O *L 0 *C 18.112 6.800
*I *27:D I *L 0.558146 *C 15.072 5.280
*N *84:2 *C 15.072 5.293
*N *84:3 *C 15.072 6.027
*N *84:4 *C 15.086 6.040
*N *84:5 *C 18.099 6.040
*N *84:6 *C 18.112 6.054
*N *84:7 *C 18.112 6.787

*CAP
0 *58:Y 0.001
1 *27:D 0.001
2 *84:2 0.03590458
3 *84:3 0.03733726
4 *84:4 0.1151421
5 *84:5 0.1151421
6 *84:6 0.03545619
7 *84:7 0.03402351

*RES
0 *58:Y *84:7 1
1 *84:2 *27:D 1
2 *84:3 *84:2 1.308929
3 *84:4 *84:3 0.5
4 *84:6 *84:5 0.5
5 *84:5 *84:4 5.380358
6 *84:7 *84:6 1.308929

*END

*D_NET *85 0.1698953 //LENGTH 1.565 LUMPCC 0 DR

*CONN
*I *60:Y O *L 0 *C 14.160 3.456
*I *28:D I *L 0.558146 *C 14.890 4.064
*N *85:2 *C 14.312 4.064
*N *85:3 *C 14.312 4.063
*N *85:4 *C 14.312 3.608
*N *85:5 *C 14.160 3.608
*N *85:6 *C 14.160 3.470

*CAP
0 *60:Y 0.001
1 *28:D 0.03842655
2 *85:2 0.04582588
3 *85:3 0.02192252
4 *85:4 0.03256823
5 *85:5 0.02126368
6 *85:6 0.008888476

*RES
0 *60:Y *85:6 1
1 *85:2 *28:D 1.156
2 *85:3 *85:2 1
3 *85:6 *85:5 0.2473214
4 *85:5 *85:4 0.2714286
5 *85:4 *85:3 0.8125

*END

*D_NET *86 0.3039201 //LENGTH 3.679 LUMPCC 0 DR

*CONN
*I *62:Y O *L 0 *C 14.464 12.576
*I *29:D I *L 0.558146 *C 15.072 15.312
*N *86:2 *C 15.072 15.300
*N *86:3 *C 15.072 15.160
*N *86:4 *C 15.059 15.160
*N *86:5 *C 14.478 15.160
*N *86:6 *C 14.464 15.147
*N *86:7 *C 14.464 12.590

*CAP
0 *62:Y 0.001
1 *29:D 0.001
2 *86:2 0.008902429
3 *86:3 0.01033511
4 *86:4 0.02961723
5 *86:5 0.02961723
6 *86:6 0.1124404
7 *86:7 0.1110077

*RES
0 *62:Y *86:7 1
1 *86:2 *29:D 1
2 *86:3 *86:2 0.2325
3 *86:4 *86:3 0.5
4 *86:6 *86:5 0.5
5 *86:5 *86:4 1.0375
6 *86:7 *86:6 4.566072

*END

*D_NET *87 0.483429 //LENGTH 4.907 LUMPCC 0 DR

*CONN
*I *64:Y O *L 0 *C 17.337 19.264
*I *30:D I *L 0.558146 *C 15.072 17.318
*N *87:2 *C 15.072 17.288
*N *87:3 *C 15.073 17.288
*N *87:4 *C 15.376 17.288
*N *87:5 *C 15.376 19.416
*N *87:6 *C 16.591 19.416
*N *87:7 *C 16.592 19.416
*N *87:8 *C 16.592 19.264

*CAP
0 *64:Y 0.04319063
1 *30:D 0.006710744
2 *87:2 0.004635346
3 *87:3 0.01262933
4 *87:4 0.1332309
5 *87:5 0.1667885
6 *87:6 0.04618689
7 *87:7 0.01616346
8 *87:8 0.05389315

*RES
0 *64:Y *87:8 1.49
1 *87:2 *30:D 0.02727273
2 *87:3 *87:2 1
3 *87:7 *87:6 1
4 *87:6 *87:5 2.169643
5 *87:8 *87:7 0.304
6 *87:4 *87:3 0.5410715
7 *87:5 *87:4 3.8

*END

*D_NET *88 0.7347007 //LENGTH 9.607 LUMPCC 0 DR

*CONN
*I *66:Y O *L 0 *C 16.440 19.264
*I *31:D I *L 0.558146 *C 11.120 15.312
*N *88:2 *C 11.120 15.312
*N *88:3 *C 11.120 15.452
*N *88:4 *C 11.133 15.464
*N *88:5 *C 16.427 15.464
*N *88:6 *C 16.440 15.478
*N *88:7 *C 16.440 19.251

*CAP
0 *66:Y 0.001
1 *31:D 0.001
2 *88:2 0.01252162
3 *88:3 0.0139543
4 *88:4 0.19099
5 *88:5 0.19099
6 *88:6 0.1628388
7 *88:7 0.1614061

*RES
0 *66:Y *88:7 1
1 *88:2 *31:D 1
2 *88:3 *88:2 0.2325
3 *88:4 *88:3 0.5
4 *88:6 *88:5 0.5
5 *88:5 *88:4 9.451786
6 *88:7 *88:6 6.7375

*END

*D_NET *89 0.2884732 //LENGTH 3.983 LUMPCC 0 DR

*CONN
*I *68:Y O *L 0 *C 9.296 16.832
*I *32:D I *L 0.558146 *C 7.168 15.312
*N *89:2 *C 7.168 15.312
*N *89:3 *C 7.168 15.452
*N *89:4 *C 7.182 15.464
*N *89:5 *C 9.283 15.464
*N *89:6 *C 9.296 15.478
*N *89:7 *C 9.296 16.819

*CAP
0 *68:Y 0.001
1 *32:D 0.001
2 *89:2 0.007294401
3 *89:3 0.00872708
4 *89:4 0.07673653
5 *89:5 0.07673653
6 *89:6 0.05920567
7 *89:7 0.05777299

*RES
0 *68:Y *89:7 1
1 *89:2 *32:D 1
2 *89:3 *89:2 0.2325
3 *89:4 *89:3 0.5
4 *89:6 *89:5 0.5
5 *89:5 *89:4 3.751786
6 *89:7 *89:6 2.394643

*END

*D_NET *90 0.6080239 //LENGTH 7.150 LUMPCC 0 DR

*CONN
*I *70:Y O *L 0 *C 7.290 16.832
*I *33:D I *L 0.558146 *C 2.304 18.656
*N *90:2 *C 2.304 18.643
*N *90:3 *C 2.304 18.504
*N *90:4 *C 2.317 18.504
*N *90:5 *C 5.939 18.504
*N *90:6 *C 5.952 18.491
*N *90:7 *C 5.952 16.833
*N *90:8 *C 5.952 16.832

*CAP
0 *70:Y 0.0815639
1 *33:D 0.001
2 *90:2 0.006978798
3 *90:3 0.008411476
4 *90:4 0.1285455
5 *90:5 0.1285455
6 *90:6 0.08256367
7 *90:7 0.08286048
8 *90:8 0.08755472

*RES
0 *70:Y *90:8 2.676
1 *90:2 *33:D 1
2 *90:3 *90:2 0.2325
3 *90:4 *90:3 0.5
4 *90:6 *90:5 0.5
5 *90:5 *90:4 6.466071
6 *90:8 *90:7 1
7 *90:7 *90:6 2.959822

*END

*D_NET *91 0.3799398 //LENGTH 4.895 LUMPCC 0 DR

*CONN
*I *72:Y O *L 0 *C 5.344 15.920
*I *34:D I *L 0.558146 *C 2.304 17.440
*N *91:2 *C 2.304 17.428
*N *91:3 *C 2.304 17.288
*N *91:4 *C 2.317 17.288
*N *91:5 *C 5.331 17.288
*N *91:6 *C 5.344 17.274
*N *91:7 *C 5.344 15.934

*CAP
0 *72:Y 0.001
1 *34:D 0.001
2 *91:2 0.007081679
3 *91:3 0.008514357
4 *91:4 0.1148964
5 *91:5 0.1148964
6 *91:6 0.06699178
7 *91:7 0.0655591

*RES
0 *72:Y *91:7 1
1 *91:2 *34:D 1
2 *91:3 *91:2 0.2325
3 *91:4 *91:3 0.5
4 *91:6 *91:5 0.5
5 *91:5 *91:4 5.380357
6 *91:7 *91:6 2.394643

*END
