*SPEF "1481-1998"
*DESIGN "up_down_counter_16bit"
*DATE "Mon Jun  2 17:03:03 2025"
*VENDOR "Synopsys, Inc."
*PROGRAM "icc2 /home/synopsys_install/icc2/W-2024.09/linux64/nwtn/bin/icc2_exec"
*VERSION "W-2024.09 Aug 25, 2024"
*DESIGN_FLOW "ICC2 SPEF DR"
*DIVIDER /
*DELIMITER :
*BUS_DELIMITER [ ]
*T_UNIT 1 NS
*C_UNIT 1 FF
*R_UNIT 1 OHM
*L_UNIT 1 HENRY

// XY_UNIT 1 UM
// PARASITIC_TECH p2 at 125.000 degree

*NAME_MAP
*1 Clock
*2 Reset
*3 Enable
*4 Up_Down
*5 Count[15]
*6 Count[14]
*7 Count[13]
*8 Count[12]
*9 Count[11]
*10 Count[10]
*11 Count[9]
*12 Count[8]
*13 Count[7]
*14 Count[6]
*15 Count[5]
*16 Count[4]
*17 Count[3]
*18 Count[2]
*19 Count[1]
*20 Count[0]
*21 VDD
*22 VSS
*23 Count_reg[15]
*24 Count_reg[14]
*25 Count_reg[13]
*26 Count_reg[12]
*27 Count_reg[11]
*28 Count_reg[10]
*29 Count_reg[9]
*30 Count_reg[8]
*31 Count_reg[7]
*32 Count_reg[6]
*33 Count_reg[5]
*34 Count_reg[4]
*35 Count_reg[3]
*36 Count_reg[2]
*37 Count_reg[1]
*38 Count_reg[0]
*39 HFSINV_69_0
*40 HFSINV_556_1
*41 ctosc_drc_inst_997
*42 ctosc_drc_inst_1112
*43 ctmTdsLR_1_285
*44 ctmTdsLR_1_1113
*45 ctmTdsLR_2_1114
*46 ctmTdsLR_1_1115
*47 ctmTdsLR_2_1116
*48 copt_h_inst_1117
*49 U36
*50 U38
*51 U39
*52 U40
*53 U41
*54 U42
*55 U43
*56 U44
*57 U45
*58 U46
*59 U47
*60 U48
*61 U49
*62 U50
*63 U51
*64 U52
*65 U53
*66 U54
*67 U55
*68 U56
*69 U57
*70 U58
*71 U59
*72 U60
*73 U61
*74 U62
*75 U63
*76 U64
*77 U65
*78 U66
*79 U67
*80 n4
*81 n5
*82 n6
*83 n7
*84 n8
*85 n9
*86 n10
*87 n11
*88 n12
*89 n13
*90 n14
*91 n15
*92 n16
*93 n17
*94 n18
*95 n19
*96 HFSNET_0
*97 HFSNET_1
*98 HFSNET_2
*99 ctosc_drc_0
*100 n25
*101 ctosc_drc_1
*102 tmp_net2
*103 tmp_net3
*104 n29
*105 n30
*106 n31
*107 copt_net_4
*108 n33
*109 n34
*110 n35
*111 n36
*112 n37
*113 n38
*114 n39
*115 n40
*116 n41
*117 n42
*118 n43
*119 n44
*120 n45
*121 n46
*122 n47
*123 n48
*124 n49
*125 n50
*126 n51
*127 n52
*128 n53
*129 n54
*130 n55
*131 n57
*132 n58
*133 n60
*134 n62
*135 n64

*PORTS

*1 I *C 0.143 11.208
*2 I *C 13.704 0.143
*3 I *C 8.232 0.143
*4 I *C 7.624 0.143
*5 O *C 10.360 0.143
*6 O *C 20.577 14.856
*7 O *C 20.577 12.424
*8 O *C 20.577 9.688
*9 O *C 20.577 6.952
*10 O *C 20.577 4.520
*11 O *C 20.577 18.808
*12 O *C 20.577 18.200
*13 O *C 10.968 23.793
*14 O *C 8.384 23.793
*15 O *C 5.344 23.793
*16 O *C 0.143 15.464
*17 O *C 0.143 12.424
*18 O *C 0.143 9.688
*19 O *C 0.143 6.040
*20 O *C 0.143 4.520
*21 I *C 10.360 11.968
*22 I *C 10.360 11.968

*D_NET *1 0.4418411 //LENGTH 5.707 LUMPCC 0 DR

*CONN
*P *1 I *L 0 *C 0.258 11.208
*I *42:A I *L 0.753714 *C 3.064 13.944
*N *1:2 *C 3.064 13.931
*N *1:3 *C 3.064 11.222
*N *1:4 *C 3.050 11.208

*CAP
0 *1 0.09364815
1 *42:A 0.001
2 *1:2 0.1270902
3 *1:3 0.1282337
4 *1:4 0.09186912

*RES
0 *1 *1:4 4.986608
1 *1:2 *42:A 1
2 *1:3 *1:2 4.837501
3 *1:4 *1:3 0.5

*END

*D_NET *2 0.5571162 //LENGTH 7.819 LUMPCC 0 DR

*CONN
*P *2 I *L 0 *C 13.704 0.258
*I *39:A I *L 0.797938 *C 12.640 3.912
*I *43:A2 I *L 0.705404 *C 10.056 4.034
*N *2:3 *C 10.056 4.034
*N *2:4 *C 10.056 3.900
*N *2:5 *C 10.069 3.912
*N *2:6 *C 12.640 3.730
*N *2:7 *C 12.640 3.900
*N *2:8 *C 12.640 3.912
*N *2:9 *C 13.691 3.912
*N *2:10 *C 13.704 3.899

*CAP
0 *2 0.1214535
1 *39:A 0.001
2 *43:A2 0.001
3 *2:3 0.005908581
4 *2:4 0.003098289
5 *2:5 0.1005224
6 *2:6 0.01155169
7 *2:7 0.006850087
8 *2:8 0.1441793
9 *2:9 0.04187787
10 *2:10 0.1196744

*RES
0 *2 *2:10 6.500893
1 *2:10 *2:9 0.5
2 *2:9 *2:8 1.875893
3 *2:7 *39:A 1
4 *2:7 *2:6 0.2825
5 *2:8 *2:7 0.5
6 *2:8 *2:5 4.590179
7 *2:4 *2:3 0.2241667
8 *2:5 *2:4 0.5
9 *2:3 *43:A2 0.5

*END

*D_NET *3 0.5530659 //LENGTH 8.348 LUMPCC 0 DR

*CONN
*P *3 I *L 0 *C 8.232 0.258
*I *43:A1 I *L 0.605958 *C 9.751 3.912
*I *45:A1 I *L 0.564384 *C 11.728 3.608
*N *3:3 *C 11.728 3.607
*N *3:4 *C 11.728 3.014
*N *3:5 *C 11.715 3.000
*N *3:6 *C 9.690 3.912
*N *3:7 *C 9.690 3.912
*N *3:8 *C 9.752 3.014
*N *3:9 *C 9.752 3.000
*N *3:10 *C 8.245 3.000
*N *3:11 *C 8.232 2.986

*CAP
0 *3 0.08950891
1 *43:A1 0.01767103
2 *45:A1 0.001
3 *3:3 0.02152949
4 *3:4 0.02267302
5 *3:5 0.0614333
6 *3:6 0.01288865
7 *3:7 0.04512926
8 *3:8 0.03698768
9 *3:9 0.1098635
10 *3:10 0.0466512
11 *3:11 0.08772986

*RES
0 *3 *3:11 4.872321
1 *3:4 *3:3 1.059822
2 *3:5 *3:4 0.5
3 *3:3 *45:A1 1
4 *3:8 *3:7 1.604464
5 *3:9 *3:8 0.5
6 *3:9 *3:5 3.504464
7 *3:6 *43:A1 0.1916667
8 *3:7 *3:6 0.5
9 *3:11 *3:10 0.5
10 *3:10 *3:9 2.690179

*END

*D_NET *4 0.2783009 //LENGTH 4.385 LUMPCC 0 DR

*CONN
*P *4 I *L 0 *C 7.624 0.258
*I *40:A I *L 0.615434 *C 7.168 3.912
*N *4:2 *C 7.168 3.899
*N *4:3 *C 7.168 0.886
*N *4:4 *C 7.182 0.872
*N *4:5 *C 7.611 0.872
*N *4:6 *C 7.624 0.859

*CAP
0 *4 0.0246647
1 *40:A 0.001
2 *4:2 0.1008159
3 *4:3 0.1019594
4 *4:4 0.01348759
5 *4:5 0.01348759
6 *4:6 0.02288567

*RES
0 *4 *4:6 1.072321
1 *4:2 *40:A 1
2 *4:3 *4:2 5.380358
3 *4:4 *4:3 0.5
4 *4:6 *4:5 0.5
5 *4:5 *4:4 0.7660714

*END

*D_NET *5 1.065976 //LENGTH 14.533 LUMPCC 0 DR

*CONN
*I *23:Q O *L 0 *C 10.056 9.080
*I *49:A2 I *L 1.066784 *C 11.272 7.256
*I *50:A1 I *L 0.530816 *C 12.488 5.432
*P *5 O *L 0 *C 10.360 0.258
*N *5:4 *C 10.056 8.898
*N *5:5 *C 12.488 5.446
*N *5:6 *C 12.488 6.027
*N *5:7 *C 12.475 6.040
*N *5:8 *C 10.373 6.040
*N *5:9 *C 10.360 6.040
*N *5:10 *C 11.272 7.243
*N *5:11 *C 11.272 6.357
*N *5:12 *C 11.258 6.344
*N *5:13 *C 10.373 6.344
*N *5:14 *C 10.360 6.344
*N *5:15 *C 10.360 9.066
*N *5:16 *C 10.347 9.080
*N *5:17 *C 10.069 9.080
*N *5:18 *C 10.056 9.068

*CAP
0 *23:Q 0.001
1 *49:A2 0.001
2 *50:A1 0.001
3 *5 0.2052517
4 *5:4 0.01136018
5 *5:5 0.02920904
6 *5:6 0.03035257
7 *5:7 0.08387882
8 *5:8 0.08387882
9 *5:9 0.2157563
10 *5:10 0.04422288
11 *5:11 0.04536642
12 *5:12 0.03467501
13 *5:13 0.03467501
14 *5:14 0.1135962
15 *5:15 0.1013125
16 *5:16 0.01139095
17 *5:17 0.01139095
18 *5:18 0.006658582

*RES
0 *23:Q *5:18 1
1 *5:14 *5:13 0.5
2 *5:14 *5:9 0.5428572
3 *5:13 *5:12 1.580357
4 *5:11 *5:10 1.580357
5 *5:12 *5:11 0.5
6 *5:10 *49:A2 1
7 *5:9 *5:8 0.5
8 *5:9 *5 10.325
9 *5:8 *5:7 3.751786
10 *5:6 *5:5 1.0375
11 *5:7 *5:6 0.5
12 *5:5 *50:A1 1
13 *5:15 *5:14 4.861608
14 *5:16 *5:15 0.5
15 *5:18 *5:17 0.5
16 *5:18 *5:4 0.2825
17 *5:17 *5:16 0.4946429

*END

*D_NET *6 0.9880028 //LENGTH 14.051 LUMPCC 0 DR

*CONN
*I *24:Q O *L 0 *C 18.416 13.640
*I *52:A1 I *L 0.530816 *C 12.032 12.120
*I *51:A I *L 1.976759 *C 10.816 12.576
*P *6 O *L 0 *C 20.462 14.856
*N *6:4 *C 18.430 14.856
*N *6:5 *C 18.416 14.843
*N *6:6 *C 10.816 12.562
*N *6:7 *C 10.816 12.133
*N *6:8 *C 10.830 12.120
*N *6:9 *C 12.019 12.120
*N *6:10 *C 12.032 12.133
*N *6:11 *C 12.032 14.235
*N *6:12 *C 12.046 14.248
*N *6:13 *C 18.402 14.248
*N *6:14 *C 18.416 14.248
*N *6:15 *C 18.416 13.654

*CAP
0 *24:Q 0.001
1 *52:A1 0.001
2 *51:A 0.001
3 *6 0.06035525
4 *6:4 0.05857622
5 *6:5 0.02792445
6 *6:6 0.02633878
7 *6:7 0.02748231
8 *6:8 0.05404969
9 *6:9 0.05404969
10 *6:10 0.08058105
11 *6:11 0.08350362
12 *6:12 0.2143159
13 *6:13 0.2143159
14 *6:14 0.05717851
15 *6:15 0.02633149

*RES
0 *24:Q *6:15 1
1 *6:5 *6:4 0.5
2 *6:4 *6 3.629464
3 *6:15 *6:14 1.061607
4 *6:14 *6:13 0.5
5 *6:14 *6:5 1.061607
6 *6:13 *6:12 11.35179
7 *6:11 *6:10 3.751786
8 *6:12 *6:11 0.5
9 *6:10 *52:A1 1
10 *6:10 *6:9 0.5
11 *6:9 *6:8 2.123214
12 *6:7 *6:6 0.7660714
13 *6:8 *6:7 0.5
14 *6:6 *51:A 1

*END

*D_NET *7 0.8515821 //LENGTH 10.594 LUMPCC 0 DR

*CONN
*I *25:Q O *L 0 *C 18.416 12.424
*I *54:A1 I *L 0.530816 *C 17.960 10.600
*I *53:A I *L 1.976759 *C 15.187 10.144
*P *7 O *L 0 *C 20.462 12.424
*N *7:4 *C 18.416 12.242
*N *7:5 *C 15.085 10.144
*N *7:6 *C 15.072 10.130
*N *7:7 *C 15.072 9.094
*N *7:8 *C 15.086 9.080
*N *7:9 *C 17.947 9.080
*N *7:10 *C 17.960 9.094
*N *7:11 *C 17.960 10.600
*N *7:12 *C 17.960 12.411
*N *7:13 *C 17.974 12.424
*N *7:14 *C 18.416 12.424
*N *7:15 *C 18.416 12.412

*CAP
0 *25:Q 0.001
1 *54:A1 0.001
2 *53:A 0.01053473
3 *7 0.05752109
4 *7:4 0.01058362
5 *7:5 0.008940601
6 *7:6 0.05344523
7 *7:7 0.05326032
8 *7:8 0.117753
9 *7:9 0.117753
10 *7:10 0.07328816
11 *7:11 0.1652302
12 *7:12 0.09130655
13 *7:13 0.01328126
14 *7:14 0.07080235
15 *7:15 0.005882017

*RES
0 *25:Q *7:15 1
1 *7:15 *7:14 0.5
2 *7:15 *7:4 0.2825
3 *7:14 *7:13 0.7901787
4 *7:14 *7 3.653572
5 *7:12 *7:11 3.233036
6 *7:13 *7:12 0.5
7 *7:11 *54:A1 1
8 *7:11 *7:10 2.690179
9 *7:10 *7:9 0.5
10 *7:9 *7:8 5.108929
11 *7:7 *7:6 1.851786
12 *7:8 *7:7 0.5
13 *7:5 *53:A 0.17
14 *7:6 *7:5 1

*END

*D_NET *8 1.124376 //LENGTH 15.605 LUMPCC 0 DR

*CONN
*I *26:Q O *L 0 *C 18.416 9.080
*I *56:A1 I *L 0.530816 *C 16.136 7.256
*P *8 O *L 0 *C 20.462 9.688
*I *55:A I *L 1.976759 *C 10.816 10.144
*N *8:4 *C 10.816 10.132
*N *8:5 *C 10.816 9.992
*N *8:6 *C 10.830 9.992
*N *8:7 *C 18.568 9.992
*N *8:8 *C 18.568 9.688
*N *8:9 *C 18.430 9.688
*N *8:10 *C 18.416 9.675
*N *8:11 *C 16.136 7.270
*N *8:12 *C 16.136 8.155
*N *8:13 *C 16.149 8.168
*N *8:14 *C 18.402 8.168
*N *8:15 *C 18.416 8.181
*N *8:16 *C 18.416 9.080

*CAP
0 *26:Q 0.001
1 *56:A1 0.001
2 *8 0.05666108
3 *55:A 0.001
4 *8:4 0.01474392
5 *8:5 0.01588745
6 *8:6 0.2939423
7 *8:7 0.3060369
8 *8:8 0.07424533
9 *8:9 0.005489662
10 *8:10 0.021615
11 *8:11 0.04093487
12 *8:12 0.0420784
13 *8:13 0.08157901
14 *8:14 0.08157901
15 *8:15 0.03216614
16 *8:16 0.05441664

*RES
0 *26:Q *8:16 1
1 *8:10 *8:9 0.5
2 *8:9 *8:8 0.2473214
3 *8:16 *8:15 1.604464
4 *8:16 *8:10 1.061607
5 *8:15 *8:14 0.5
6 *8:14 *8:13 4.023214
7 *8:12 *8:11 1.580357
8 *8:13 *8:12 0.5
9 *8:11 *56:A1 1
10 *8:5 *8:4 0.2325
11 *8:6 *8:5 0.5
12 *8:4 *55:A 1
13 *8:7 *8:6 13.81875
14 *8:8 *8 3.382143
15 *8:8 *8:7 0.5428572

*END

*D_NET *9 0.963798 //LENGTH 12.857 LUMPCC 0 DR

*CONN
*I *27:Q O *L 0 *C 18.416 5.736
*I *57:A I *L 1.976759 *C 13.704 9.232
*P *9 O *L 0 *C 20.462 6.952
*I *58:A1 I *L 0.530816 *C 17.275 7.256
*N *9:4 *C 17.489 7.256
*N *9:5 *C 17.504 7.270
*N *9:6 *C 17.504 7.546
*N *9:7 *C 17.518 7.560
*N *9:8 *C 18.402 7.560
*N *9:9 *C 18.416 7.546
*N *9:10 *C 13.704 9.219
*N *9:11 *C 13.704 6.966
*N *9:12 *C 13.718 6.952
*N *9:13 *C 18.416 6.952
*N *9:14 *C 18.416 6.952
*N *9:15 *C 18.416 5.750

*CAP
0 *27:Q 0.001
1 *57:A 0.001
2 *9 0.05885919
3 *58:A1 0.01503474
4 *9:4 0.01344061
5 *9:5 0.01966526
6 *9:6 0.01948036
7 *9:7 0.03345747
8 *9:8 0.03345747
9 *9:9 0.02166084
10 *9:10 0.1065407
11 *9:11 0.1076842
12 *9:12 0.1827884
13 *9:13 0.2416476
14 *9:14 0.06633227
15 *9:15 0.04174887

*RES
0 *27:Q *9:15 1
1 *9:14 *9:13 0.5
2 *9:14 *9:9 1.061607
3 *9:13 *9:12 8.390179
4 *9:13 *9 3.653571
5 *9:15 *9:14 2.147322
6 *9:9 *9:8 0.5
7 *9:8 *9:7 1.580357
8 *9:6 *9:5 0.4946429
9 *9:7 *9:6 0.5
10 *9:4 *58:A1 0.4280001
11 *9:5 *9:4 1
12 *9:11 *9:10 4.023214
13 *9:12 *9:11 0.5
14 *9:10 *57:A 1

*END

*D_NET *10 0.7975562 //LENGTH 11.734 LUMPCC 0 DR

*CONN
*I *28:Q O *L 0 *C 18.264 3.608
*I *59:A I *L 1.976759 *C 13.869 6.800
*I *60:A1 I *L 0.530816 *C 13.248 3.912
*P *10 O *L 0 *C 20.462 4.520
*N *10:4 *C 13.248 3.925
*N *10:5 *C 13.248 4.203
*N *10:6 *C 13.261 4.216
*N *10:7 *C 14.008 4.216
*N *10:8 *C 13.995 6.800
*N *10:9 *C 14.008 6.787
*N *10:10 *C 14.008 4.534
*N *10:11 *C 14.008 4.520
*N *10:12 *C 18.264 4.520
*N *10:13 *C 18.264 4.506
*N *10:14 *C 18.264 3.622

*CAP
0 *28:Q 0.001
1 *59:A 0.01209386
2 *60:A1 0.001
3 *10 0.06069293
4 *10:4 0.0196076
5 *10:5 0.02075113
6 *10:6 0.03056166
7 *10:7 0.04291702
8 *10:8 0.01049973
9 *10:9 0.09225288
10 *10:10 0.09206796
11 *10:11 0.1505539
12 *10:12 0.2006705
13 *10:13 0.03201527
14 *10:14 0.03087174

*RES
0 *28:Q *10:14 1
1 *10:13 *10:12 0.5
2 *10:12 *10:11 7.6
3 *10:12 *10 3.925
4 *10:14 *10:13 1.580357
5 *10:10 *10:9 4.023214
6 *10:11 *10:10 0.5
7 *10:11 *10:7 0.5428572
8 *10:8 *59:A 0.2116667
9 *10:9 *10:8 1
10 *10:5 *10:4 0.4946429
11 *10:6 *10:5 0.5
12 *10:4 *60:A1 1
13 *10:7 *10:6 1.333036

*END

*D_NET *11 1.242695 //LENGTH 16.966 LUMPCC 0 DR

*CONN
*I *29:Q O *L 0 *C 18.416 15.768
*I *62:A1 I *L 0.530816 *C 13.552 12.120
*I *61:A I *L 1.976759 *C 11.272 13.488
*P *11 O *L 0 *C 20.462 18.808
*N *11:4 *C 18.582 18.808
*N *11:5 *C 18.568 18.794
*N *11:6 *C 18.568 15.768
*N *11:7 *C 11.272 13.488
*N *11:8 *C 11.272 13.628
*N *11:9 *C 11.286 13.640
*N *11:10 *C 13.551 12.120
*N *11:11 *C 13.400 12.120
*N *11:12 *C 13.400 13.627
*N *11:13 *C 13.400 13.640
*N *11:14 *C 18.251 13.640
*N *11:15 *C 18.264 13.654
*N *11:16 *C 18.264 15.160
*N *11:17 *C 18.416 15.160
*N *11:18 *C 18.416 15.768

*CAP
0 *29:Q 0.001
1 *62:A1 0.001
2 *61:A 0.001
3 *11 0.06456748
4 *11:4 0.06278843
5 *11:5 0.1200756
6 *11:6 0.1288413
7 *11:7 0.009130246
8 *11:8 0.01027378
9 *11:9 0.07038239
10 *11:10 0.004414468
11 *11:11 0.07419981
12 *11:12 0.06508374
13 *11:13 0.2308529
14 *11:14 0.1586915
15 *11:15 0.07931201
16 *11:16 0.08795689
17 *11:17 0.03796311
18 *11:18 0.03516128

*RES
0 *29:Q *11:18 1
1 *11:5 *11:4 0.5
2 *11:4 *11 3.358036
3 *11:18 *11:17 1.085714
4 *11:18 *11:6 0.2714286
5 *11:15 *11:14 0.5
6 *11:14 *11:13 8.661608
7 *11:12 *11:11 2.690179
8 *11:13 *11:12 0.5
9 *11:13 *11:9 3.775893
10 *11:10 *62:A1 1
11 *11:8 *11:7 0.2325
12 *11:9 *11:8 0.5
13 *11:7 *61:A 1
14 *11:11 *11:10 0.2696429
15 *11:16 *11:15 2.690179
16 *11:17 *11:16 0.2714286
17 *11:6 *11:5 5.404465

*END

*D_NET *12 0.7647122 //LENGTH 9.789 LUMPCC 0 DR

*CONN
*I *30:Q O *L 0 *C 18.416 16.984
*I *63:A I *L 1.976759 *C 14.160 19.264
*P *12 O *L 0 *C 20.462 18.200
*I *64:A1 I *L 0.530816 *C 18.264 18.808
*N *12:4 *C 18.264 18.794
*N *12:5 *C 18.264 18.200
*N *12:6 *C 14.160 19.251
*N *12:7 *C 14.160 18.518
*N *12:8 *C 14.174 18.504
*N *12:9 *C 18.264 18.503
*N *12:10 *C 18.264 18.504
*N *12:11 *C 18.264 16.984
*N *12:12 *C 18.415 16.984

*CAP
0 *30:Q 0.001
1 *63:A 0.001
2 *12 0.0723727
3 *64:A1 0.001
4 *12:4 0.01422725
5 *12:5 0.08281969
6 *12:6 0.03729925
7 *12:7 0.03844278
8 *12:8 0.1690078
9 *12:9 0.1794548
10 *12:10 0.08631396
11 *12:11 0.07781985
12 *12:12 0.0039541

*RES
0 *30:Q *12:12 1
1 *12:12 *12:11 0.2696429
2 *12:4 *64:A1 1
3 *12:10 *12:9 0.5
4 *12:10 *12:4 0.5187501
5 *12:9 *12:8 7.304464
6 *12:9 *12:5 0.5410715
7 *12:7 *12:6 1.308929
8 *12:8 *12:7 0.5
9 *12:6 *63:A 1
10 *12:11 *12:10 2.714286
11 *12:5 *12 3.925

*END

*D_NET *13 1.21084 //LENGTH 15.163 LUMPCC 0 DR

*CONN
*I *31:Q O *L 0 *C 14.464 15.768
*I *65:A I *L 1.976759 *C 11.728 16.832
*P *13 O *L 0 *C 10.968 23.678
*I *66:A1 I *L 0.530816 *C 15.528 18.808
*N *13:4 *C 15.528 18.794
*N *13:5 *C 15.528 17.302
*N *13:6 *C 15.514 17.288
*N *13:7 *C 10.968 19.416
*N *13:8 *C 11.120 19.416
*N *13:9 *C 11.120 17.910
*N *13:10 *C 11.133 17.896
*N *13:11 *C 11.715 17.896
*N *13:12 *C 11.728 17.883
*N *13:13 *C 11.728 16.846
*N *13:14 *C 11.728 17.288
*N *13:15 *C 11.742 17.288
*N *13:16 *C 14.464 17.288
*N *13:17 *C 14.464 17.274
*N *13:18 *C 14.464 15.782

*CAP
0 *31:Q 0.001
1 *65:A 0.001
2 *13 0.1347911
3 *66:A1 0.001
4 *13:4 0.09293403
5 *13:5 0.09407756
6 *13:6 0.04216942
7 *13:7 0.1413284
8 *13:8 0.07738221
9 *13:9 0.06906585
10 *13:10 0.02631401
11 *13:11 0.02631401
12 *13:12 0.0309995
13 *13:13 0.01975057
14 *13:14 0.05367263
15 *13:15 0.1138692
16 *13:16 0.1578177
17 *13:17 0.06424881
18 *13:18 0.06310529

*RES
0 *31:Q *13:18 1
1 *13:5 *13:4 2.666071
2 *13:6 *13:5 0.5
3 *13:4 *66:A1 1
4 *13:17 *13:16 0.5
5 *13:16 *13:15 4.861608
6 *13:16 *13:6 1.875893
7 *13:18 *13:17 2.666071
8 *13:14 *13:13 0.7901787
9 *13:14 *13:12 1.061607
10 *13:15 *13:14 0.5
11 *13:13 *65:A 1
12 *13:12 *13:11 0.5
13 *13:11 *13:10 1.0375
14 *13:9 *13:8 2.690179
15 *13:10 *13:9 0.5
16 *13:7 *13 7.610715
17 *13:8 *13:7 0.2714286

*END

*D_NET *14 0.8375293 //LENGTH 11.853 LUMPCC 0 DR

*CONN
*I *32:Q O *L 0 *C 10.512 15.768
*I *68:A1 I *L 0.530816 *C 10.208 17.288
*I *67:A I *L 1.976759 *C 9.904 19.264
*P *14 O *L 0 *C 8.384 23.678
*N *14:4 *C 8.384 19.430
*N *14:5 *C 8.398 19.416
*N *14:6 *C 9.904 19.264
*N *14:7 *C 9.904 19.404
*N *14:8 *C 9.904 19.416
*N *14:9 *C 10.347 19.416
*N *14:10 *C 10.360 19.402
*N *14:11 *C 10.360 16.680
*N *14:12 *C 10.208 17.274
*N *14:13 *C 10.208 16.680
*N *14:14 *C 10.222 16.680
*N *14:15 *C 10.498 16.680
*N *14:16 *C 10.512 16.666
*N *14:17 *C 10.512 15.782

*CAP
0 *32:Q 0.001
1 *68:A1 0.001
2 *67:A 0.001
3 *14 0.1310309
4 *14:4 0.1292519
5 *14:5 0.04609045
6 *14:6 0.005806637
7 *14:7 0.006950169
8 *14:8 0.06088138
9 *14:9 0.0130119
10 *14:10 0.1181559
11 *14:11 0.1271794
12 *14:12 0.03528377
13 *14:13 0.04367178
14 *14:14 0.01399277
15 *14:15 0.01399277
16 *14:16 0.04518647
17 *14:17 0.04404294

*RES
0 *32:Q *14:17 1
1 *14:12 *68:A1 1
2 *14:13 *14:12 1.061607
3 *14:13 *14:11 0.2714286
4 *14:14 *14:13 0.5
5 *14:16 *14:15 0.5
6 *14:15 *14:14 0.4946429
7 *14:17 *14:16 1.580357
8 *14:10 *14:9 0.5
9 *14:9 *14:8 0.7901786
10 *14:7 *14:6 0.2325
11 *14:8 *14:7 0.5
12 *14:8 *14:5 2.690179
13 *14:6 *67:A 1
14 *14:4 *14 7.586608
15 *14:5 *14:4 0.5
16 *14:11 *14:10 4.861607

*END

*D_NET *15 0.7857553 //LENGTH 11.219 LUMPCC 0 DR

*CONN
*I *33:Q O *L 0 *C 5.648 19.112
*I *69:A I *L 1.976759 *C 6.864 19.264
*P *15 O *L 0 *C 5.344 23.678
*I *70:A1 I *L 0.530816 *C 8.232 17.288
*N *15:4 *C 8.232 17.302
*N *15:5 *C 8.232 17.883
*N *15:6 *C 8.219 17.896
*N *15:7 *C 5.662 17.896
*N *15:8 *C 5.648 17.910
*N *15:9 *C 5.344 19.112
*N *15:10 *C 6.864 19.252
*N *15:11 *C 6.864 19.112
*N *15:12 *C 6.851 19.112
*N *15:13 *C 5.662 19.112
*N *15:14 *C 5.648 19.099

*CAP
0 *33:Q 0.001
1 *69:A 0.001
2 *15 0.1403931
3 *70:A1 0.001
4 *15:4 0.03220024
5 *15:5 0.03334377
6 *15:6 0.1055607
7 *15:7 0.1055607
8 *15:8 0.04790148
9 *15:9 0.1531761
10 *15:10 0.008334815
11 *15:11 0.009478346
12 *15:12 0.04452214
13 *15:13 0.04452214
14 *15:14 0.05776188

*RES
0 *33:Q *15:14 1
1 *15:14 *15:13 0.5
2 *15:14 *15:9 0.5428572
3 *15:14 *15:8 2.123215
4 *15:13 *15:12 2.123214
5 *15:11 *15:10 0.2325
6 *15:12 *15:11 0.5
7 *15:10 *69:A 1
8 *15:8 *15:7 0.5
9 *15:7 *15:6 4.566072
10 *15:5 *15:4 1.0375
11 *15:6 *15:5 0.5
12 *15:4 *70:A1 1
13 *15:9 *15 8.153572

*END

*D_NET *16 0.6036524 //LENGTH 8.686 LUMPCC 0 DR

*CONN
*I *34:Q O *L 0 *C 5.648 16.984
*I *71:A I *L 1.976759 *C 3.052 15.920
*P *16 O *L 0 *C 0.258 15.464
*I *72:A1 I *L 0.530816 *C 6.256 15.464
*N *16:4 *C 6.256 15.282
*N *16:5 *C 6.256 15.452
*N *16:6 *C 6.243 15.464
*N *16:7 *C 2.925 15.920
*N *16:8 *C 2.912 15.907
*N *16:9 *C 2.912 15.478
*N *16:10 *C 2.912 15.464
*N *16:11 *C 5.648 15.464
*N *16:12 *C 5.648 15.478
*N *16:13 *C 5.648 16.971

*CAP
0 *34:Q 0.001
1 *71:A 0.01130669
2 *16 0.07501063
3 *72:A1 0.001
4 *16:4 0.01505675
5 *16:5 0.01035515
6 *16:6 0.02308688
7 *16:7 0.009712564
8 *16:8 0.02222665
9 *16:9 0.02204175
10 *16:10 0.1619243
11 *16:11 0.1117795
12 *16:12 0.07014754
13 *16:13 0.06900401

*RES
0 *34:Q *16:13 1
1 *16:5 *72:A1 1
2 *16:5 *16:4 0.2825
3 *16:6 *16:5 0.5
4 *16:12 *16:11 0.5
5 *16:11 *16:10 4.885715
6 *16:11 *16:6 1.061607
7 *16:13 *16:12 2.666071
8 *16:9 *16:8 0.7660714
9 *16:10 *16:9 0.5
10 *16:10 *16 4.739285
11 *16:7 *71:A 0.2116667
12 *16:8 *16:7 1

*END

*D_NET *17 0.9030948 //LENGTH 13.575 LUMPCC 0 DR

*CONN
*I *35:Q O *L 0 *C 10.056 13.640
*I *74:A1 I *L 0.530816 *C 4.115 10.600
*I *73:A I *L 1.976759 *C 2.912 12.576
*P *17 O *L 0 *C 0.258 12.424
*N *17:4 *C 2.912 12.564
*N *17:5 *C 2.912 12.424
*N *17:6 *C 2.912 12.424
*N *17:7 *C 3.989 10.600
*N *17:8 *C 3.976 10.614
*N *17:9 *C 3.976 12.411
*N *17:10 *C 3.976 12.424
*N *17:11 *C 10.043 12.424
*N *17:12 *C 10.056 12.438
*N *17:13 *C 10.056 13.627

*CAP
0 *35:Q 0.001
1 *74:A1 0.0131425
2 *73:A 0.001
3 *17 0.07981721
4 *17:4 0.01628655
5 *17:5 0.01743008
6 *17:6 0.1108287
7 *17:7 0.01154838
8 *17:8 0.07048817
9 *17:9 0.07030325
10 *17:10 0.2284531
11 *17:11 0.1956626
12 *17:12 0.04413886
13 *17:13 0.04299533

*RES
0 *35:Q *17:13 1
1 *17:12 *17:11 0.5
2 *17:11 *17:10 10.83304
3 *17:13 *17:12 2.123214
4 *17:9 *17:8 3.208929
5 *17:10 *17:9 0.5
6 *17:10 *17:6 1.9
7 *17:7 *74:A1 0.2116667
8 *17:8 *17:7 1
9 *17:5 *17:4 0.2325
10 *17:6 *17:5 0.5
11 *17:6 *17 4.739285
12 *17:4 *73:A 1

*END

*D_NET *18 1.123155 //LENGTH 14.023 LUMPCC 0 DR

*CONN
*I *36:Q O *L 0 *C 8.992 10.296
*I *76:A1 I *L 0.530816 *C 5.179 8.776
*I *75:A I *L 1.976759 *C 2.912 9.232
*P *18 O *L 0 *C 0.258 9.688
*N *18:4 *C 8.992 10.114
*N *18:5 *C 0.480 9.688
*N *18:6 *C 0.480 9.992
*N *18:7 *C 2.912 9.245
*N *18:8 *C 5.053 8.776
*N *18:9 *C 5.040 8.790
*N *18:10 *C 5.040 9.370
*N *18:11 *C 5.027 9.384
*N *18:12 *C 2.925 9.384
*N *18:13 *C 2.912 9.398
*N *18:14 *C 2.912 9.979
*N *18:15 *C 2.912 9.993
*N *18:16 *C 2.912 10.296
*N *18:17 *C 8.979 10.296
*N *18:18 *C 8.992 10.284

*CAP
0 *36:Q 0.001
1 *76:A1 0.01311608
2 *75:A 0.001
3 *18 0.009772418
4 *18:4 0.01591783
5 *18:5 0.01923455
6 *18:6 0.0967138
7 *18:7 0.01027092
8 *18:8 0.01152195
9 *18:9 0.02699571
10 *18:10 0.0268108
11 *18:11 0.08833094
12 *18:12 0.08833094
13 *18:13 0.04921431
14 *18:14 0.03602083
15 *18:15 0.09606933
16 *18:16 0.2669969
17 *18:17 0.2546212
18 *18:18 0.01121623

*RES
0 *36:Q *18:18 1
1 *18:18 *18:17 0.5
2 *18:18 *18:4 0.2825
3 *18:17 *18:16 10.83304
4 *18:14 *18:13 1.0375
5 *18:15 *18:14 0.5
6 *18:15 *18:6 4.342857
7 *18:7 *75:A 1
8 *18:13 *18:12 0.5
9 *18:13 *18:7 0.255
10 *18:12 *18:11 3.751786
11 *18:10 *18:9 1.0375
12 *18:11 *18:10 0.5
13 *18:8 *76:A1 0.2116667
14 *18:9 *18:8 1
15 *18:5 *18 0.3964286
16 *18:6 *18:5 0.5428572
17 *18:16 *18:15 0.5410715

*END

*D_NET *19 0.8796006 //LENGTH 11.295 LUMPCC 0 DR

*CONN
*I *37:Q O *L 0 *C 5.800 5.736
*I *77:A I *L 1.976759 *C 3.064 3.456
*P *19 O *L 0 *C 0.258 6.040
*I *78:A1 I *L 0.530816 *C 6.462 3.912
*N *19:4 *C 6.408 4.094
*N *19:5 *C 6.408 3.912
*N *19:6 *C 6.408 3.925
*N *19:7 *C 6.395 3.912
*N *19:8 *C 3.050 6.040
*N *19:9 *C 3.064 6.027
*N *19:10 *C 3.064 3.470
*N *19:11 *C 3.064 3.912
*N *19:12 *C 3.078 3.912
*N *19:13 *C 5.800 3.912
*N *19:14 *C 5.800 3.925
*N *19:15 *C 5.800 5.723

*CAP
0 *37:Q 0.001
1 *77:A 0.001
2 *19 0.0911857
3 *78:A1 0.008729235
4 *19:4 0.01807665
5 *19:5 0.007135109
6 *19:6 0.01470349
7 *19:7 0.02420658
8 *19:8 0.08940667
9 *19:9 0.08360165
10 *19:10 0.01920433
11 *19:11 0.1057286
12 *19:12 0.09933096
13 *19:13 0.1253166
14 *19:14 0.09605935
15 *19:15 0.09491583

*RES
0 *37:Q *19:15 1
1 *19:6 *19:5 1
2 *19:6 *19:4 0.2825
3 *19:7 *19:6 0.5
4 *19:5 *78:A1 0.09166666
5 *19:14 *19:13 0.5
6 *19:13 *19:12 4.861608
7 *19:13 *19:7 1.061607
8 *19:15 *19:14 3.208929
9 *19:11 *19:10 0.7901786
10 *19:11 *19:9 3.775893
11 *19:12 *19:11 0.5
12 *19:10 *77:A 1
13 *19:9 *19:8 0.5
14 *19:8 *19 4.986608

*END

*D_NET *20 0.7706352 //LENGTH 10.201 LUMPCC 0 DR

*CONN
*I *38:Q O *L 0 *C 5.648 6.952
*I *77:CI I *L 1.474751 *C 2.912 4.064
*P *20 O *L 0 *C 0.258 4.520
*I *79:A1 I *L 0.530816 *C 6.408 5.432
*N *20:4 *C 6.407 5.432
*N *20:5 *C 2.912 4.078
*N *20:6 *C 2.912 4.506
*N *20:7 *C 2.912 4.520
*N *20:8 *C 6.243 4.520
*N *20:9 *C 6.256 4.534
*N *20:10 *C 6.256 5.432
*N *20:11 *C 6.243 5.432
*N *20:12 *C 5.662 5.432
*N *20:13 *C 5.648 5.446
*N *20:14 *C 5.648 6.939

*CAP
0 *38:Q 0.001
1 *77:CI 0.001
2 *20 0.07846242
3 *79:A1 0.001
4 *20:4 0.004454633
5 *20:5 0.02914871
6 *20:6 0.03029224
7 *20:7 0.2023866
8 *20:8 0.1239242
9 *20:9 0.0523642
10 *20:10 0.0597414
11 *20:11 0.02257787
12 *20:12 0.02257787
13 *20:13 0.07142426
14 *20:14 0.07028074

*RES
0 *38:Q *20:14 1
1 *20:4 *79:A1 1
2 *20:10 *20:9 1.604465
3 *20:10 *20:4 0.2696429
4 *20:11 *20:10 0.5
5 *20:13 *20:12 0.5
6 *20:12 *20:11 1.0375
7 *20:14 *20:13 2.666071
8 *20:9 *20:8 0.5
9 *20:8 *20:7 5.947322
10 *20:6 *20:5 0.7660714
11 *20:7 *20:6 0.5
12 *20:7 *20 4.739285
13 *20:5 *77:CI 1

*END

*D_NET *80 0.627548 //LENGTH 8.563 LUMPCC 0 DR

*CONN
*I *50:Y O *L 0 *C 11.576 5.888
*I *23:D I *L 0.558146 *C 6.682 8.624
*N *80:2 *C 6.423 8.624
*N *80:3 *C 6.408 8.611
*N *80:4 *C 6.408 8.181
*N *80:5 *C 6.421 8.168
*N *80:6 *C 11.562 8.168
*N *80:7 *C 11.576 8.155
*N *80:8 *C 11.576 5.902

*CAP
0 *50:Y 0.001
1 *23:D 0.01860308
2 *80:2 0.01700895
3 *80:3 0.02739777
4 *80:4 0.02721287
5 *80:5 0.1775235
6 *80:6 0.1775235
7 *80:7 0.09121089
8 *80:8 0.09006737

*RES
0 *50:Y *80:8 1
1 *80:2 *23:D 0.5180001
2 *80:3 *80:2 1
3 *80:4 *80:3 0.7660714
4 *80:5 *80:4 0.5
5 *80:7 *80:6 0.5
6 *80:6 *80:5 9.180358
7 *80:8 *80:7 4.023214

*END

*D_NET *81 0.3268019 //LENGTH 3.776 LUMPCC 0 DR

*CONN
*I *52:Y O *L 0 *C 12.957 12.576
*I *24:D I *L 0.558146 *C 15.042 14.096
*N *81:2 *C 13.096 14.096
*N *81:3 *C 13.096 14.095
*N *81:4 *C 13.096 12.590
*N *81:5 *C 13.084 12.576

*CAP
0 *52:Y 0.01311968
1 *24:D 0.08929432
2 *81:2 0.09364287
3 *81:3 0.05960972
4 *81:4 0.05960972
5 *81:5 0.01152555

*RES
0 *52:Y *81:5 0.2116667
1 *81:2 *24:D 3.892
2 *81:3 *81:2 1
3 *81:5 *81:4 1
4 *81:4 *81:3 2.688393

*END

*D_NET *82 0.3740565 //LENGTH 4.439 LUMPCC 0 DR

*CONN
*I *54:Y O *L 0 *C 17.048 10.144
*I *25:D I *L 0.558146 *C 15.072 11.968
*N *82:2 *C 15.072 11.968
*N *82:3 *C 15.072 12.107
*N *82:4 *C 15.086 12.120
*N *82:5 *C 17.035 12.120
*N *82:6 *C 17.048 12.107
*N *82:7 *C 17.048 10.158

*CAP
0 *54:Y 0.001
1 *25:D 0.001
2 *82:2 0.008176197
3 *82:3 0.009319728
4 *82:4 0.06979456
5 *82:5 0.06979456
6 *82:6 0.1080575
7 *82:7 0.106914

*RES
0 *54:Y *82:7 1
1 *82:2 *25:D 1
2 *82:3 *82:2 0.2325
3 *82:4 *82:3 0.5
4 *82:6 *82:5 0.5
5 *82:5 *82:4 3.480357
6 *82:7 *82:6 3.480357

*END

*D_NET *83 0.2744782 //LENGTH 3.048 LUMPCC 0 DR

*CONN
*I *56:Y O *L 0 *C 15.194 6.800
*I *26:D I *L 0.558146 *C 15.042 8.624
*N *83:2 *C 14.631 8.624
*N *83:3 *C 14.616 8.611
*N *83:4 *C 14.616 6.814
*N *83:5 *C 14.631 6.800

*CAP
0 *56:Y 0.03869327
1 *26:D 0.02547159
2 *83:2 0.02387747
3 *83:3 0.07466836
4 *83:4 0.07466836
5 *83:5 0.03709915

*RES
0 *56:Y *83:5 1.126
1 *83:2 *26:D 0.822
2 *83:3 *83:2 1
3 *83:5 *83:4 1
4 *83:4 *83:3 3.208929

*END

*D_NET *84 0.3365007 //LENGTH 4.890 LUMPCC 0 DR

*CONN
*I *58:Y O *L 0 *C 18.112 6.800
*I *27:D I *L 0.558146 *C 15.072 5.280
*N *84:2 *C 15.072 5.293
*N *84:3 *C 15.072 6.027
*N *84:4 *C 15.086 6.040
*N *84:5 *C 18.099 6.040
*N *84:6 *C 18.112 6.054
*N *84:7 *C 18.112 6.787

*CAP
0 *58:Y 0.001
1 *27:D 0.001
2 *84:2 0.03187043
3 *84:3 0.03301397
4 *84:4 0.10404
5 *84:5 0.10404
6 *84:6 0.03133995
7 *84:7 0.03019642

*RES
0 *58:Y *84:7 1
1 *84:2 *27:D 1
2 *84:3 *84:2 1.308929
3 *84:4 *84:3 0.5
4 *84:6 *84:5 0.5
5 *84:5 *84:4 5.380358
6 *84:7 *84:6 1.308929

*END

*D_NET *85 0.1442449 //LENGTH 1.565 LUMPCC 0 DR

*CONN
*I *60:Y O *L 0 *C 14.160 3.456
*I *28:D I *L 0.558146 *C 14.890 4.064
*N *85:2 *C 14.312 4.064
*N *85:3 *C 14.312 4.063
*N *85:4 *C 14.312 3.608
*N *85:5 *C 14.160 3.608
*N *85:6 *C 14.160 3.470

*CAP
0 *60:Y 0.001
1 *28:D 0.03185547
2 *85:2 0.03815765
3 *85:3 0.01906677
4 *85:4 0.02782406
5 *85:5 0.01821334
6 *85:6 0.008127605

*RES
0 *60:Y *85:6 1
1 *85:2 *28:D 1.156
2 *85:3 *85:2 1
3 *85:6 *85:5 0.2473214
4 *85:5 *85:4 0.2714286
5 *85:4 *85:3 0.8125

*END

*D_NET *86 0.2661321 //LENGTH 3.679 LUMPCC 0 DR

*CONN
*I *62:Y O *L 0 *C 14.464 12.576
*I *29:D I *L 0.558146 *C 15.072 15.312
*N *86:2 *C 15.072 15.300
*N *86:3 *C 15.072 15.160
*N *86:4 *C 15.059 15.160
*N *86:5 *C 14.478 15.160
*N *86:6 *C 14.464 15.147
*N *86:7 *C 14.464 12.590

*CAP
0 *62:Y 0.001
1 *29:D 0.001
2 *86:2 0.008236136
3 *86:3 0.009379668
4 *86:4 0.02709739
5 *86:5 0.02709739
6 *86:6 0.09673252
7 *86:7 0.09558899

*RES
0 *62:Y *86:7 1
1 *86:2 *29:D 1
2 *86:3 *86:2 0.2325
3 *86:4 *86:3 0.5
4 *86:6 *86:5 0.5
5 *86:5 *86:4 1.0375
6 *86:7 *86:6 4.566072

*END

*D_NET *87 0.4149417 //LENGTH 4.907 LUMPCC 0 DR

*CONN
*I *64:Y O *L 0 *C 17.337 19.264
*I *30:D I *L 0.558146 *C 15.072 17.318
*N *87:2 *C 15.072 17.288
*N *87:3 *C 15.073 17.288
*N *87:4 *C 15.376 17.288
*N *87:5 *C 15.376 19.416
*N *87:6 *C 16.591 19.416
*N *87:7 *C 16.592 19.416
*N *87:8 *C 16.592 19.264

*CAP
0 *64:Y 0.0359238
1 *30:D 0.005405807
2 *87:2 0.00381168
3 *87:3 0.01079432
4 *87:4 0.1154233
5 *87:5 0.1450393
6 *87:6 0.04041026
7 *87:7 0.01338696
8 *87:8 0.04474624

*RES
0 *64:Y *87:8 1.49
1 *87:2 *30:D 0.02727273
2 *87:3 *87:2 1
3 *87:7 *87:6 1
4 *87:6 *87:5 2.169643
5 *87:8 *87:7 0.304
6 *87:4 *87:3 0.5410715
7 *87:5 *87:4 3.8

*END

*D_NET *88 0.6462271 //LENGTH 9.607 LUMPCC 0 DR

*CONN
*I *66:Y O *L 0 *C 16.440 19.264
*I *31:D I *L 0.558146 *C 11.120 15.312
*N *88:2 *C 11.120 15.312
*N *88:3 *C 11.120 15.452
*N *88:4 *C 11.133 15.464
*N *88:5 *C 16.427 15.464
*N *88:6 *C 16.440 15.478
*N *88:7 *C 16.440 19.251

*CAP
0 *66:Y 0.001
1 *31:D 0.001
2 *88:2 0.01130768
3 *88:3 0.01245121
4 *88:4 0.170801
5 *88:5 0.170801
6 *88:6 0.1400049
7 *88:7 0.1388614

*RES
0 *66:Y *88:7 1
1 *88:2 *31:D 1
2 *88:3 *88:2 0.2325
3 *88:4 *88:3 0.5
4 *88:6 *88:5 0.5
5 *88:5 *88:4 9.451786
6 *88:7 *88:6 6.7375

*END

*D_NET *89 0.2549085 //LENGTH 3.983 LUMPCC 0 DR

*CONN
*I *68:Y O *L 0 *C 9.296 16.832
*I *32:D I *L 0.558146 *C 7.168 15.312
*N *89:2 *C 7.168 15.312
*N *89:3 *C 7.168 15.452
*N *89:4 *C 7.182 15.464
*N *89:5 *C 9.283 15.464
*N *89:6 *C 9.296 15.478
*N *89:7 *C 9.296 16.819

*CAP
0 *68:Y 0.001
1 *32:D 0.001
2 *89:2 0.00664608
3 *89:3 0.007789611
4 *89:4 0.069274
5 *89:5 0.069274
6 *89:6 0.05053416
7 *89:7 0.04939063

*RES
0 *68:Y *89:7 1
1 *89:2 *32:D 1
2 *89:3 *89:2 0.2325
3 *89:4 *89:3 0.5
4 *89:6 *89:5 0.5
5 *89:5 *89:4 3.751786
6 *89:7 *89:6 2.394643

*END

*D_NET *90 0.5309269 //LENGTH 7.150 LUMPCC 0 DR

*CONN
*I *70:Y O *L 0 *C 7.290 16.832
*I *33:D I *L 0.558146 *C 2.304 18.656
*N *90:2 *C 2.304 18.643
*N *90:3 *C 2.304 18.504
*N *90:4 *C 2.317 18.504
*N *90:5 *C 5.939 18.504
*N *90:6 *C 5.952 18.491
*N *90:7 *C 5.952 16.833
*N *90:8 *C 5.952 16.832

*CAP
0 *70:Y 0.06803935
1 *33:D 0.001
2 *90:2 0.006421856
3 *90:3 0.007565388
4 *90:4 0.1145344
5 *90:5 0.1145344
6 *90:6 0.07273176
7 *90:7 0.07291667
8 *90:8 0.07318307

*RES
0 *70:Y *90:8 2.676
1 *90:2 *33:D 1
2 *90:3 *90:2 0.2325
3 *90:4 *90:3 0.5
4 *90:6 *90:5 0.5
5 *90:5 *90:4 6.466071
6 *90:8 *90:7 1
7 *90:7 *90:6 2.959822

*END

*D_NET *91 0.3407032 //LENGTH 4.895 LUMPCC 0 DR

*CONN
*I *72:Y O *L 0 *C 5.344 15.920
*I *34:D I *L 0.558146 *C 2.304 17.440
*N *91:2 *C 2.304 17.428
*N *91:3 *C 2.304 17.288
*N *91:4 *C 2.317 17.288
*N *91:5 *C 5.331 17.288
*N *91:6 *C 5.344 17.274
*N *91:7 *C 5.344 15.934

*CAP
0 *72:Y 0.001
1 *34:D 0.001
2 *91:2 0.006418635
3 *91:3 0.007562167
4 *91:4 0.1037543
5 *91:5 0.1037543
6 *91:6 0.05917864
7 *91:7 0.05803511

*RES
0 *72:Y *91:7 1
1 *91:2 *34:D 1
2 *91:3 *91:2 0.2325
3 *91:4 *91:3 0.5
4 *91:6 *91:5 0.5