*SPEF "1481-1998"
*DESIGN "up_down_counter_16bit"
*DATE "Tue Jun  3 14:23:01 2025"
*VENDOR "Synopsys, Inc."
*PROGRAM "icc2 /home/synopsys_install/icc2/W-2024.09/linux64/nwtn/bin/icc2_exec"
*VERSION "W-2024.09 Aug 25, 2024"
*DESIGN_FLOW "ICC2 SPEF DR"
*DIVIDER /
*DELIMITER :
*BUS_DELIMITER [ ]
*T_UNIT 1 NS
*C_UNIT 1 FF
*R_UNIT 1 OHM
*L_UNIT 1 HENRY

// XY_UNIT 1 UM
// PARASITIC_TECH p1 at 125.000 degree

*NAME_MAP
*1 Clock
*2 Reset
*3 Enable
*4 Up_Down
*5 Count[15]
*6 Count[14]
*7 Count[13]
*8 Count[12]
*9 Count[11]
*10 Count[10]
*11 Count[9]
*12 Count[8]
*13 Count[7]
*14 Count[6]
*15 Count[5]
*16 Count[4]
*17 Count[3]
*18 Count[2]
*19 Count[1]
*20 Count[0]
*21 VDD
*22 VSS
*23 Count_reg[15]
*24 Count_reg[14]
*25 Count_reg[13]
*26 Count_reg[12]
*27 Count_reg[11]
*28 Count_reg[10]
*29 Count_reg[9]
*30 Count_reg[8]
*31 Count_reg[7]
*32 Count_reg[6]
*33 Count_reg[5]
*34 Count_reg[4]
*35 Count_reg[3]
*36 Count_reg[2]
*37 Count_reg[1]
*38 Count_reg[0]
*39 HFSINV_183_0
*40 HFSINV_668_1
*41 U26
*42 ctosc_drc_inst_995
*43 HFSINV_550_3
*44 ctosc_drc_inst_1111
*45 copt_h_inst_1112
*46 U33
*47 U35
*48 U39
*49 U40
*50 U41
*51 U42
*52 U43
*53 U44
*54 U45
*55 U46
*56 U47
*57 U48
*58 U49
*59 U50
*60 U51
*61 U52
*62 U53
*63 U54
*64 U55
*65 U56
*66 U57
*67 U58
*68 U59
*69 U60
*70 U61
*71 U62
*72 U63
*73 U64
*74 U65
*75 U66
*76 U67
*77 U68
*78 U69
*79 n5
*80 n6
*81 n7
*82 n8
*83 n9
*84 n10
*85 n11
*86 n12
*87 n13
*88 n14
*89 n15
*90 n16
*91 n17
*92 n18
*93 n19
*94 n20
*95 HFSNET_0
*96 HFSNET_1
*97 n24
*98 ctosc_drc_0
*99 HFSNET_3
*100 ctosc_drc_1
*101 n29
*102 n30
*103 n31
*104 n32
*105 n33
*106 n34
*107 n35
*108 n36
*109 n37
*110 n38
*111 n39
*112 n40
*113 n41
*114 n42
*115 n43
*116 n44
*117 n45
*118 n46
*119 n47
*120 n48
*121 n49
*122 n50
*123 n51
*124 n52
*125 n53
*126 n54
*127 n55
*128 copt_net_2
*129 n57
*130 n59
*131 n61
*132 n63
*133 n64

*PORTS

*1 I *C 10.056 23.921
*2 I *C 17.352 0.143
*3 I *C 12.184 0.143
*4 I *C 8.080 0.143
*5 O *C 10.360 0.143
*6 O *C 25.441 7.472
*7 O *C 25.441 5.040
*8 O *C 25.441 3.520
*9 O *C 25.441 9.600
*10 O *C 17.048 13.889
*11 O *C 14.649 17.200
*12 O *C 14.649 15.680
*13 O *C 10.360 23.921
*14 O *C 7.776 23.921
*15 O *C 5.040 23.921
*16 O *C 0.143 17.808
*17 O *C 0.143 11.728
*18 O *C 0.143 9.296
*19 O *C 0.143 6.256
*20 O *C 0.143 3.520
*21 I *C 12.792 12.032
*22 I *C 12.792 12.032

*D_NET *1 0.9888104 //LENGTH 11.793 LUMPCC 0 DR

*CONN
*P *1 I *L 0 *C 10.056 23.806
*I *44:A I *L 0.753714 *C 5.496 17.808
*N *1:2 *C 5.496 17.626
*N *1:3 *C 5.496 17.796
*N *1:4 *C 5.510 17.808
*N *1:5 *C 10.347 17.808
*N *1:6 *C 10.360 17.822
*N *1:7 *C 10.360 20.835
*N *1:8 *C 10.347 20.848
*N *1:9 *C 10.069 20.848
*N *1:10 *C 10.056 20.861

*CAP
0 *1 0.1276191
1 *44:A 0.001
2 *1:2 0.01254994
3 *1:3 0.006372829
4 *1:4 0.185906
5 *1:5 0.185906
6 *1:6 0.1577955
7 *1:7 0.1577955
8 *1:8 0.01430939
9 *1:9 0.01430939
10 *1:10 0.1252469

*RES
0 *1 *1:10 5.258036
1 *1:3 *44:A 1
2 *1:3 *1:2 0.2825
3 *1:4 *1:3 0.5
4 *1:6 *1:5 0.5
5 *1:5 *1:4 8.637501
6 *1:7 *1:6 5.380358
7 *1:8 *1:7 0.5
8 *1:10 *1:9 0.5
9 *1:9 *1:8 0.4946429

*END

*D_NET *2 1.12233 //LENGTH 11.912 LUMPCC 0 DR

*CONN
*P *2 I *L 0 *C 17.352 0.258
*I *46:A2 I *L 0.705032 *C 20.090 4.432
*I *39:A I *L 0.797938 *C 22.976 4.432
*N *2:3 *C 22.976 4.418
*N *2:4 *C 22.976 3.838
*N *2:5 *C 22.963 3.824
*N *2:6 *C 20.088 4.406
*N *2:7 *C 20.088 4.128
*N *2:8 *C 20.240 4.128
*N *2:9 *C 20.240 3.838
*N *2:10 *C 20.240 3.824
*N *2:11 *C 17.062 3.824
*N *2:12 *C 17.048 3.811
*N *2:13 *C 17.048 2.608
*N *2:14 *C 17.200 2.608
*N *2:15 *C 17.200 0.480
*N *2:16 *C 17.352 0.480

*CAP
0 *2 0.01473338
1 *46:A2 0.001
2 *39:A 0.001
3 *2:3 0.03889164
4 *2:4 0.04032432
5 *2:5 0.1194508
6 *2:6 0.01576725
7 *2:7 0.0294853
8 *2:8 0.02860722
9 *2:9 0.0171866
10 *2:10 0.2649134
11 *2:11 0.1430904
12 *2:12 0.08185115
13 *2:13 0.09232558
14 *2:14 0.1065771
15 *2:15 0.1054336
16 *2:16 0.02169206

*RES
0 *2 *2:16 0.3964286
1 *2:4 *2:3 1.0375
2 *2:5 *2:4 0.5
3 *2:3 *39:A 1
4 *2:9 *2:8 0.5187501
5 *2:10 *2:9 0.5
6 *2:10 *2:5 4.861607
7 *2:6 *46:A2 0.5
8 *2:12 *2:11 0.5
9 *2:11 *2:10 5.675893
10 *2:13 *2:12 2.147322
11 *2:14 *2:13 0.2714286
12 *2:15 *2:14 3.8
13 *2:16 *2:15 0.2714286
14 *2:7 *2:6 0.4964286
15 *2:8 *2:7 0.2714286

*END

*D_NET *3 1.094424 //LENGTH 12.792 LUMPCC 0 DR

*CONN
*P *3 I *L 0 *C 12.184 0.258
*I *47:A1 I *L 0.618031 *C 17.960 2.760
*I *46:A1 I *L 0.625865 *C 19.754 4.584
*N *3:3 *C 19.495 4.584
*N *3:4 *C 19.480 4.571
*N *3:5 *C 19.480 2.317
*N *3:6 *C 19.466 2.304
*N *3:7 *C 17.960 2.747
*N *3:8 *C 17.960 2.317
*N *3:9 *C 17.960 2.304
*N *3:10 *C 12.197 2.304
*N *3:11 *C 12.184 2.291

*CAP
0 *3 0.0803481
1 *47:A1 0.001
2 *46:A1 0.01964654
3 *3:3 0.01757114
4 *3:4 0.1405019
5 *3:5 0.1402051
6 *3:6 0.05416638
7 *3:7 0.02187946
8 *3:8 0.02331214
9 *3:9 0.2871779
10 *3:10 0.2306393
11 *3:11 0.07797588

*RES
0 *3 *3:11 3.629464
1 *3:5 *3:4 4.023214
2 *3:6 *3:5 0.5
3 *3:3 *46:A1 0.5180001
4 *3:4 *3:3 1
5 *3:8 *3:7 0.7660716
6 *3:9 *3:8 0.5
7 *3:9 *3:6 2.690179
8 *3:7 *47:A1 1
9 *3:11 *3:10 0.5
10 *3:10 *3:9 10.29018

*END

*D_NET *4 0.3317728 //LENGTH 3.747 LUMPCC 0 DR

*CONN
*P *4 I *L 0 *C 8.080 0.272
*I *40:A I *L 0.615434 *C 8.673 2.912
*N *4:2 *C 8.536 2.912
*N *4:3 *C 8.536 3.064
*N *4:4 *C 8.095 3.064
*N *4:5 *C 8.080 3.050

*CAP
0 *4 0.1101913
1 *40:A 0.0153975
2 *4:2 0.02586339
3 *4:3 0.04237303
4 *4:4 0.02983175
5 *4:5 0.1081159

*RES
0 *4 *4:5 4.961607
1 *4:4 *4:3 0.8820001
2 *4:5 *4:4 1
3 *4:3 *4:2 0.304
4 *4:2 *40:A 0.274

*END

*D_NET *5 0.7665712 //LENGTH 9.180 LUMPCC 0 DR

*CONN
*I *23:Q O *L 0 *C 12.184 5.952
*I *49:A1 I *L 0.530816 *C 11.272 4.432
*P *5 O *L 0 *C 10.360 0.258
*I *48:A2 I *L 1.066784 *C 11.576 2.912
*N *5:4 *C 11.575 2.912
*N *5:5 *C 10.360 2.899
*N *5:6 *C 10.373 2.912
*N *5:7 *C 11.411 2.912
*N *5:8 *C 11.424 2.912
*N *5:9 *C 11.272 4.418
*N *5:10 *C 11.272 3.824
*N *5:11 *C 11.424 3.824
*N *5:12 *C 11.576 3.824
*N *5:13 *C 11.576 5.027
*N *5:14 *C 11.590 5.040
*N *5:15 *C 12.171 5.040
*N *5:16 *C 12.184 5.054
*N *5:17 *C 12.184 5.939

*CAP
0 *23:Q 0.001
1 *49:A1 0.001
2 *5 0.1018536
3 *48:A2 0.001
4 *5:4 0.005136446
5 *5:5 0.09948134
6 *5:6 0.04231869
7 *5:7 0.04231869
8 *5:8 0.06259108
9 *5:9 0.03564049
10 *5:10 0.04668021
11 *5:11 0.07049161
12 *5:12 0.06955781
13 *5:13 0.05995076
14 *5:14 0.02600078
15 *5:15 0.02600078
16 *5:16 0.03849078
17 *5:17 0.0370581

*RES
0 *23:Q *5:17 1
1 *5:13 *5:12 2.147322
2 *5:14 *5:13 0.5
3 *5:16 *5:15 0.5
4 *5:15 *5:14 1.0375
5 *5:17 *5:16 1.580357
6 *5:4 *48:A2 1
7 *5:9 *49:A1 1
8 *5:8 *5:7 0.5
9 *5:8 *5:4 0.2696429
10 *5:7 *5:6 1.851786
11 *5:5 *5 4.715178
12 *5:6 *5:5 0.5
13 *5:10 *5:9 1.061607
14 *5:11 *5:10 0.2714286
15 *5:11 *5:8 1.628572
16 *5:12 *5:11 0.2714286

*END

*D_NET *6 1.58589 //LENGTH 17.710 LUMPCC 0 DR

*CONN
*I *24:Q O *L 0 *C 23.280 2.608
*I *51:A1 I *L 0.530816 *C 17.048 4.432
*I *50:A I *L 1.976759 *C 15.528 2.456
*P *6 O *L 0 *C 25.326 7.472
*N *6:4 *C 23.598 7.472
*N *6:5 *C 23.584 7.459
*N *6:6 *C 15.528 2.470
*N *6:7 *C 15.528 4.418
*N *6:8 *C 15.542 4.432
*N *6:9 *C 17.048 4.250
*N *6:10 *C 17.048 4.420
*N *6:11 *C 17.048 4.432
*N *6:12 *C 23.571 4.432
*N *6:13 *C 23.584 4.446
*N *6:14 *C 23.280 4.432
*N *6:15 *C 23.280 2.622

*CAP
0 *24:Q 0.001
1 *51:A1 0.001
2 *50:A 0.001
3 *6 0.05821661
4 *6:4 0.05584439
5 *6:5 0.1373014
6 *6:6 0.1098556
7 *6:7 0.1112883
8 *6:8 0.0667663
9 *6:9 0.02073401
10 *6:10 0.0145569
11 *6:11 0.3581133
12 *6:12 0.2889748
13 *6:13 0.1516811
14 *6:14 0.1138708
15 *6:15 0.09568624

*RES
0 *24:Q *6:15 1
1 *6:5 *6:4 0.5
2 *6:4 *6 3.086607
3 *6:15 *6:14 3.233036
4 *6:13 *6:12 0.5
5 *6:13 *6:5 5.380358
6 *6:12 *6:11 11.64732
7 *6:10 *51:A1 1
8 *6:10 *6:9 0.2825
9 *6:11 *6:10 0.5
10 *6:11 *6:8 2.690179
11 *6:7 *6:6 3.480357
12 *6:8 *6:7 0.5
13 *6:6 *50:A 1
14 *6:14 *6:13 0.5428572

*END

*D_NET *7 0.9040112 //LENGTH 11.818 LUMPCC 0 DR

*CONN
*I *25:Q O *L 0 *C 23.280 5.952
*I *53:A1 I *L 0.530816 *C 17.808 6.256
*I *52:A I *L 1.976759 *C 15.376 5.800
*P *7 O *L 0 *C 25.326 5.040
*N *7:4 *C 23.294 5.040
*N *7:5 *C 23.280 5.054
*N *7:6 *C 15.376 5.800
*N *7:7 *C 15.376 5.940
*N *7:8 *C 15.389 5.952
*N *7:9 *C 17.808 6.243
*N *7:10 *C 17.808 5.966
*N *7:11 *C 17.808 5.952
*N *7:12 *C 23.267 5.952
*N *7:13 *C 23.280 5.939

*CAP
0 *25:Q 0.001
1 *53:A1 0.001
2 *52:A 0.001
3 *7 0.0719858
4 *7:4 0.06961358
5 *7:5 0.06437337
6 *7:6 0.008640421
7 *7:7 0.0100731
8 *7:8 0.09395706
9 *7:9 0.01749566
10 *7:10 0.01892834
11 *7:11 0.2908524
12 *7:12 0.1945231
13 *7:13 0.06056847

*RES
0 *25:Q *7:13 1
1 *7:13 *7:12 0.5
2 *7:13 *7:5 1.580357
3 *7:5 *7:4 0.5
4 *7:4 *7 3.629465
5 *7:12 *7:11 9.747323
6 *7:10 *7:9 0.4946429
7 *7:11 *7:10 0.5
8 *7:11 *7:8 4.31875
9 *7:9 *53:A1 1
10 *7:7 *7:6 0.2325
11 *7:8 *7:7 0.5
12 *7:6 *52:A 1

*END

*D_NET *8 1.766748 //LENGTH 19.559 LUMPCC 0 DR

*CONN
*I *26:Q O *L 0 *C 23.280 8.080
*I *55:A1 I *L 0.530816 *C 18.112 7.776
*I *54:A I *L 1.976759 *C 12.817 8.232
*P *8 O *L 0 *C 25.326 3.520
*N *8:4 *C 23.142 3.520
*N *8:5 *C 23.128 3.534
*N *8:6 *C 12.931 8.232
*N *8:7 *C 12.944 8.219
*N *8:8 *C 12.944 7.182
*N *8:9 *C 12.958 7.168
*N *8:10 *C 18.112 7.763
*N *8:11 *C 18.112 7.169
*N *8:12 *C 18.112 7.168
*N *8:13 *C 23.114 7.168
*N *8:14 *C 23.128 7.168
*N *8:15 *C 23.280 7.168
*N *8:16 *C 23.280 8.066

*CAP
0 *26:Q 0.001
1 *55:A1 0.001
2 *54:A 0.01422922
3 *8 0.07664354
4 *8:4 0.07427132
5 *8:5 0.2191177
6 *8:6 0.01215382
7 *8:7 0.04853048
8 *8:8 0.04823366
9 *8:9 0.2336475
10 *8:10 0.03853184
11 *8:11 0.03996453
12 *8:12 0.4296244
13 *8:13 0.1936046
14 *8:14 0.2275189
15 *8:15 0.06044139
16 *8:16 0.04823528

*RES
0 *26:Q *8:16 1
1 *8:16 *8:15 1.604465
2 *8:5 *8:4 0.5
3 *8:4 *8 3.900893
4 *8:14 *8:13 0.5
5 *8:14 *8:5 6.490179
6 *8:13 *8:12 8.933036
7 *8:11 *8:10 1.059821
8 *8:12 *8:11 0.5
9 *8:12 *8:9 9.204465
10 *8:10 *55:A1 1
11 *8:8 *8:7 1.851786
12 *8:9 *8:8 0.5
13 *8:6 *54:A 0.1908333
14 *8:7 *8:6 1
15 *8:15 *8:14 0.2714286

*END

*D_NET *9 0.9017271 //LENGTH 12.291 LUMPCC 0 DR

*CONN
*I *27:Q O *L 0 *C 23.280 11.424
*I *57:A1 I *L 0.530816 *C 17.808 9.600
*I *56:A I *L 1.976759 *C 16.744 8.232
*P *9 O *L 0 *C 25.326 9.600
*N *9:4 *C 16.744 8.245
*N *9:5 *C 16.744 9.587
*N *9:6 *C 16.758 9.600
*N *9:7 *C 17.808 9.418
*N *9:8 *C 17.808 9.588
*N *9:9 *C 17.808 9.600
*N *9:10 *C 23.280 9.600
*N *9:11 *C 23.280 9.614
*N *9:12 *C 23.280 11.411

*CAP
0 *27:Q 0.001
1 *57:A1 0.001
2 *56:A 0.001
3 *9 0.06374627
4 *9:4 0.0724545
5 *9:5 0.07388718
6 *9:6 0.04608224
7 *9:7 0.01445825
8 *9:8 0.008281139
9 *9:9 0.2331437
10 *9:10 0.2484355
11 *9:11 0.06983546
12 *9:12 0.06840278

*RES
0 *27:Q *9:12 1
1 *9:11 *9:10 0.5
2 *9:10 *9:9 9.771429
3 *9:10 *9 3.653572
4 *9:12 *9:11 3.208929
5 *9:8 *57:A1 1
6 *9:8 *9:7 0.2825
7 *9:9 *9:8 0.5
8 *9:9 *9:6 1.875893
9 *9:5 *9:4 2.394643
10 *9:6 *9:5 0.5
11 *9:4 *56:A 1

*END

*D_NET *10 1.02971 //LENGTH 12.778 LUMPCC 0 DR

*CONN
*I *28:Q O *L 0 *C 19.328 11.424
*I *59:A1 I *L 0.530816 *C 14.616 9.600
*I *58:A I *L 1.976759 *C 12.336 9.144
*P *10 O *L 0 *C 17.048 13.774
*N *10:4 *C 19.328 11.242
*N *10:5 *C 12.336 9.132
*N *10:6 *C 12.336 8.992
*N *10:7 *C 12.350 8.992
*N *10:8 *C 14.603 8.992
*N *10:9 *C 14.616 9.005
*N *10:10 *C 14.616 9.600
*N *10:11 *C 14.616 10.803
*N *10:12 *C 14.630 10.816
*N *10:13 *C 17.035 10.816
*N *10:14 *C 17.048 10.830
*N *10:15 *C 17.048 11.424
*N *10:16 *C 17.062 11.424
*N *10:17 *C 19.315 11.424
*N *10:18 *C 19.328 11.412

*CAP
0 *28:Q 0.001
1 *59:A1 0.001
2 *58:A 0.001
3 *10 0.08945801
4 *10:4 0.01197748
5 *10:5 0.009163111
6 *10:6 0.01059579
7 *10:7 0.09614183
8 *10:8 0.09614183
9 *10:9 0.03060137
10 *10:10 0.0900885
11 *10:11 0.05854759
12 *10:12 0.09421076
13 *10:13 0.09421076
14 *10:14 0.02737837
15 *10:15 0.1168364
16 *10:16 0.09777905
17 *10:17 0.09777905
18 *10:18 0.005800366

*RES
0 *28:Q *10:18 1
1 *10:15 *10:14 1.061607
2 *10:15 *10 4.196429
3 *10:16 *10:15 0.5
4 *10:18 *10:17 0.5
5 *10:18 *10:4 0.2825
6 *10:17 *10:16 4.023215
7 *10:14 *10:13 0.5
8 *10:13 *10:12 4.294643
9 *10:11 *10:10 2.147322
10 *10:12 *10:11 0.5
11 *10:10 *59:A1 1
12 *10:10 *10:9 1.061607
13 *10:9 *10:8 0.5
14 *10:8 *10:7 4.023215
15 *10:6 *10:5 0.2325
16 *10:7 *10:6 0.5
17 *10:5 *58:A 1

*END

*D_NET *11 1.537563 //LENGTH 15.886 LUMPCC 0 DR

*CONN
*I *29:Q O *L 0 *C 12.488 15.984
*I *61:A1 I *L 0.530816 *C 12.488 12.944
*I *60:A I *L 1.976759 *C 9.752 8.232
*P *11 O *L 0 *C 14.534 17.200
*N *11:4 *C 12.488 15.802
*N *11:5 *C 13.261 17.200
*N *11:6 *C 13.248 17.187
*N *11:7 *C 9.752 8.232
*N *11:8 *C 9.752 8.372
*N *11:9 *C 9.766 8.384
*N *11:10 *C 11.715 8.384
*N *11:11 *C 11.728 8.398
*N *11:12 *C 11.728 13.235
*N *11:13 *C 11.742 13.248
*N *11:14 *C 12.488 12.958
*N *11:15 *C 12.488 13.235
*N *11:16 *C 12.488 13.248
*N *11:17 *C 13.235 13.248
*N *11:18 *C 13.248 13.261
*N *11:19 *C 13.248 15.984
*N *11:20 *C 13.235 15.984
*N *11:21 *C 12.502 15.984
*N *11:22 *C 12.488 15.972

*CAP
0 *29:Q 0.001
1 *61:A1 0.001
2 *60:A 0.001
3 *11 0.0426602
4 *11:4 0.01174442
5 *11:5 0.04028798
6 *11:6 0.04325107
7 *11:7 0.008259749
8 *11:8 0.009692427
9 *11:9 0.07127725
10 *11:10 0.07127725
11 *11:11 0.3276788
12 *11:12 0.3276788
13 *11:13 0.03527736
14 *11:14 0.0150798
15 *11:15 0.01651248
16 *11:16 0.06671595
17 *11:17 0.02906636
18 *11:18 0.1525295
19 *11:19 0.1981528
20 *11:20 0.03092672
21 *11:21 0.03092672
22 *11:22 0.005567305

*RES
0 *29:Q *11:22 1
1 *11:6 *11:5 0.5
2 *11:5 *11 2.272321
3 *11:18 *11:17 0.5
4 *11:17 *11:16 1.333036
5 *11:19 *11:18 4.861607
6 *11:19 *11:6 2.147321
7 *11:20 *11:19 0.5
8 *11:22 *11:21 0.5
9 *11:22 *11:4 0.2825
10 *11:21 *11:20 1.308929
11 *11:15 *11:14 0.4946429
12 *11:16 *11:15 0.5
13 *11:16 *11:13 1.333036
14 *11:14 *61:A1 1
15 *11:12 *11:11 8.637501
16 *11:13 *11:12 0.5
17 *11:11 *11:10 0.5
18 *11:10 *11:9 3.480357
19 *11:8 *11:7 0.2325
20 *11:9 *11:8 0.5
21 *11:7 *60:A 1

*END

*D_NET *12 1.277589 //LENGTH 12.842 LUMPCC 0 DR

*CONN
*I *30:Q O *L 0 *C 12.944 11.424
*I *63:A1 I *L 0.530816 *C 10.968 12.944
*I *62:A I *L 1.976759 *C 7.168 12.488
*P *12 O *L 0 *C 14.534 15.680
*N *12:4 *C 13.110 15.680
*N *12:5 *C 13.096 15.667
*N *12:6 *C 7.168 12.488
*N *12:7 *C 7.168 12.628
*N *12:8 *C 7.182 12.640
*N *12:9 *C 10.968 12.931
*N *12:10 *C 10.968 12.654
*N *12:11 *C 10.968 12.640
*N *12:12 *C 13.083 12.640
*N *12:13 *C 13.096 12.640
*N *12:14 *C 13.096 11.576
*N *12:15 *C 12.944 11.576
*N *12:16 *C 12.944 11.438

*CAP
0 *30:Q 0.001
1 *63:A1 0.001
2 *62:A 0.001
3 *12 0.0526691
4 *12:4 0.05029689
5 *12:5 0.200519
6 *12:6 0.007944549
7 *12:7 0.009377227
8 *12:8 0.177084
9 *12:9 0.02112911
10 *12:10 0.02256179
11 *12:11 0.2747184
12 *12:12 0.09526215
13 *12:13 0.262497
14 *12:14 0.06969805
15 *12:15 0.02117813
16 *12:16 0.009653208

*RES
0 *30:Q *12:16 1
1 *12:5 *12:4 0.5
2 *12:4 *12 2.54375
3 *12:16 *12:15 0.2473214
4 *12:13 *12:12 0.5
5 *12:13 *12:5 5.404465
6 *12:12 *12:11 3.775893
7 *12:10 *12:9 0.4946429
8 *12:11 *12:10 0.5
9 *12:11 *12:8 6.761608
10 *12:9 *63:A1 1
11 *12:7 *12:6 0.2325
12 *12:8 *12:7 0.5
13 *12:6 *62:A 1
14 *12:15 *12:14 0.2714286
15 *12:14 *12:13 1.9

*END

*D_NET *13 1.616415 //LENGTH 17.799 LUMPCC 0 DR

*CONN
*I *31:Q O *L 0 *C 12.488 18.112
*I *64:A I *L 1.976759 *C 5.825 14.920
*I *65:A1 I *L 0.530816 *C 11.120 19.632
*P *13 O *L 0 *C 10.360 23.806
*N *13:4 *C 10.360 22.976
*N *13:5 *C 10.512 22.976
*N *13:6 *C 10.512 19.646
*N *13:7 *C 10.526 19.632
*N *13:8 *C 11.107 19.632
*N *13:9 *C 11.120 19.619
*N *13:10 *C 5.940 14.920
*N *13:11 *C 5.952 14.934
*N *13:12 *C 5.952 16.579
*N *13:13 *C 5.966 16.592
*N *13:14 *C 11.107 16.592
*N *13:15 *C 11.120 16.605
*N *13:16 *C 11.120 17.504
*N *13:17 *C 11.133 17.504
*N *13:18 *C 12.475 17.504
*N *13:19 *C 12.488 17.518
*N *13:20 *C 12.488 18.099

*CAP
0 *31:Q 0.001
1 *64:A 0.01295282
2 *65:A1 0.001
3 *13 0.04527047
4 *13:4 0.05225149
5 *13:5 0.1824568
6 *13:6 0.1731035
7 *13:7 0.02491406
8 *13:8 0.02491406
9 *13:9 0.1299608
10 *13:10 0.01087742
11 *13:11 0.06896751
12 *13:12 0.0686707
13 *13:13 0.2053668
14 *13:14 0.2053668
15 *13:15 0.06107869
16 *13:16 0.1972167
17 *13:17 0.0488536
18 *13:18 0.0488536
19 *13:19 0.02738577
20 *13:20 0.02595309

*RES
0 *31:Q *13:20 1
1 *13:9 *65:A1 1
2 *13:9 *13:8 0.5
3 *13:16 *13:15 1.604464
4 *13:16 *13:9 3.775893
5 *13:17 *13:16 0.5
6 *13:19 *13:18 0.5
7 *13:18 *13:17 2.394642
8 *13:20 *13:19 1.0375
9 *13:8 *13:7 1.0375
10 *13:6 *13:5 5.947322
11 *13:7 *13:6 0.5
12 *13:15 *13:14 0.5
13 *13:14 *13:13 9.180358
14 *13:12 *13:11 2.9375
15 *13:13 *13:12 0.5
16 *13:10 *64:A 0.1908333
17 *13:11 *13:10 1
18 *13:4 *13 1.482143
19 *13:5 *13:4 0.2714286

*END

*D_NET *14 1.499916 //LENGTH 19.558 LUMPCC 0 DR

*CONN
*I *32:Q O *L 0 *C 12.488 21.456
*P *14 O *L 0 *C 7.776 23.806
*I *67:A1 I *L 0.530816 *C 7.442 16.288
*I *66:A I *L 1.976759 *C 2.937 14.920
*N *14:4 *C 12.488 21.274
*N *14:5 *C 3.052 14.920
*N *14:6 *C 3.064 14.934
*N *14:7 *C 3.064 15.667
*N *14:8 *C 3.078 15.680
*N *14:9 *C 7.155 15.680
*N *14:10 *C 7.168 15.694
*N *14:11 *C 7.183 16.288
*N *14:12 *C 7.168 16.288
*N *14:13 *C 7.168 21.443
*N *14:14 *C 7.182 21.456
*N *14:15 *C 7.776 21.470
*N *14:16 *C 7.776 21.456
*N *14:17 *C 12.475 21.456
*N *14:18 *C 12.488 21.444

*CAP
0 *32:Q 0.001
1 *14 0.08642653
2 *67:A1 0.01934806
3 *66:A 0.01292603
4 *14:4 0.01220655
5 *14:5 0.01085063
6 *14:6 0.04966472
7 *14:7 0.04936791
8 *14:8 0.1589798
9 *14:9 0.1589798
10 *14:10 0.02543616
11 *14:11 0.01727266
12 *14:12 0.2357166
13 *14:13 0.2076114
14 *14:14 0.02071286
15 *14:15 0.08405431
16 *14:16 0.1832087
17 *14:17 0.1601236
18 *14:18 0.006029439

*RES
0 *32:Q *14:18 1
1 *14:18 *14:17 0.5
2 *14:18 *14:4 0.2825
3 *14:17 *14:16 8.390179
4 *14:15 *14 4.172321
5 *14:16 *14:15 0.5
6 *14:16 *14:14 1.061607
7 *14:13 *14:12 9.204465
8 *14:14 *14:13 0.5
9 *14:11 *67:A1 0.5180001
10 *14:12 *14:11 1
11 *14:12 *14:10 1.061607
12 *14:10 *14:9 0.5
13 *14:9 *14:8 7.280358
14 *14:7 *14:6 1.308929
15 *14:8 *14:7 0.5
16 *14:5 *66:A 0.1908333
17 *14:6 *14:5 1

*END

*D_NET *15 1.071653 //LENGTH 11.776 LUMPCC 0 DR

*CONN
*I *33:Q O *L 0 *C 5.648 21.456
*P *15 O *L 0 *C 5.040 23.806
*I *69:A1 I *L 0.530816 *C 3.246 19.632
*I *68:A I *L 1.976759 *C 3.976 15.832
*N *15:4 *C 5.648 21.274
*N *15:5 *C 3.976 15.846
*N *15:6 *C 3.505 19.632
*N *15:7 *C 3.520 19.619
*N *15:8 *C 3.520 19.038
*N *15:9 *C 3.534 19.024
*N *15:10 *C 3.963 19.024
*N *15:11 *C 3.976 19.024
*N *15:12 *C 3.976 21.443
*N *15:13 *C 3.990 21.456
*N *15:14 *C 5.040 21.470
*N *15:15 *C 5.040 21.456
*N *15:16 *C 5.635 21.456
*N *15:17 *C 5.648 21.444

*CAP
0 *33:Q 0.001
1 *15 0.08871455
2 *69:A1 0.02128393
3 *68:A 0.001
4 *15:4 0.01214765
5 *15:5 0.1737507
6 *15:6 0.01920853
7 *15:7 0.03137192
8 *15:8 0.0310751
9 *15:9 0.02237704
10 *15:10 0.02237704
11 *15:11 0.3087077
12 *15:12 0.1311521
13 *15:13 0.03601622
14 *15:14 0.08634234
15 *15:15 0.05877322
16 *15:16 0.02038478
17 *15:17 0.005970538

*RES
0 *33:Q *15:17 1
1 *15:17 *15:16 0.5
2 *15:17 *15:4 0.2825
3 *15:16 *15:15 1.061607
4 *15:14 *15 4.172321
5 *15:15 *15:14 0.5
6 *15:15 *15:13 1.875893
7 *15:12 *15:11 4.31875
8 *15:13 *15:12 0.5
9 *15:5 *68:A 1
10 *15:11 *15:10 0.5
11 *15:11 *15:5 5.675893
12 *15:10 *15:9 0.7660714
13 *15:8 *15:7 1.0375
14 *15:9 *15:8 0.5
15 *15:6 *69:A1 0.5180001
16 *15:7 *15:6 1

*END

*D_NET *16 1.689682 //LENGTH 18.307 LUMPCC 0 DR

*CONN
*I *34:Q O *L 0 *C 8.992 19.328
*I *71:A1 I *L 0.530816 *C 4.075 19.632
*I *70:A I *L 1.976759 *C 2.912 11.576
*P *16 O *L 0 *C 0.258 17.808
*N *16:4 *C 2.912 11.590
*N *16:5 *C 2.912 17.794
*N *16:6 *C 2.912 17.808
*N *16:7 *C 4.115 17.808
*N *16:8 *C 4.128 17.822
*N *16:9 *C 4.128 19.632
*N *16:10 *C 4.128 19.632
*N *16:11 *C 4.128 19.922
*N *16:12 *C 4.142 19.936
*N *16:13 *C 8.979 19.936
*N *16:14 *C 8.992 19.922
*N *16:15 *C 8.992 19.341

*CAP
0 *34:Q 0.001
1 *71:A1 0.009047065
2 *70:A 0.001
3 *16 0.08551604
4 *16:4 0.3208842
5 *16:5 0.3223168
6 *16:6 0.1295308
7 *16:7 0.04401481
8 *16:8 0.1427822
9 *16:9 0.006971667
10 *16:10 0.1683935
11 *16:11 0.0229422
12 *16:12 0.1844956
13 *16:13 0.1844956
14 *16:14 0.03386231
15 *16:15 0.03242963

*RES
0 *34:Q *16:15 1
1 *16:11 *16:10 0.5187501
2 *16:12 *16:11 0.5
3 *16:14 *16:13 0.5
4 *16:13 *16:12 8.637501
5 *16:15 *16:14 1.0375
6 *16:9 *71:A1 0.09166667
7 *16:10 *16:9 1
8 *16:10 *16:8 3.233036
9 *16:8 *16:7 0.5
10 *16:7 *16:6 2.147322
11 *16:5 *16:4 11.08036
12 *16:6 *16:5 0.5
13 *16:6 *16 4.739285
14 *16:4 *70:A 1

*END

*D_NET *17 1.162772 //LENGTH 13.775 LUMPCC 0 DR

*CONN
*I *35:Q O *L 0 *C 8.992 11.424
*I *73:A1 I *L 0.530816 *C 4.888 12.929
*I *72:A I *L 1.976759 *C 2.912 9.144
*P *17 O *L 0 *C 0.258 11.728
*N *17:4 *C 8.992 11.242
*N *17:5 *C 3.064 11.728
*N *17:6 *C 2.912 9.158
*N *17:7 *C 2.912 9.904
*N *17:8 *C 3.064 9.904
*N *17:9 *C 3.064 11.411
*N *17:10 *C 3.064 11.424
*N *17:11 *C 4.888 12.792
*N *17:12 *C 4.888 12.779
*N *17:13 *C 4.888 11.438
*N *17:14 *C 4.888 11.424
*N *17:15 *C 8.979 11.424
*N *17:16 *C 8.992 11.412

*CAP
0 *35:Q 0.001
1 *73:A1 0.01062848
2 *72:A 0.001
3 *17 0.0999843
4 *17:4 0.01780554
5 *17:5 0.1125353
6 *17:6 0.05929959
7 *17:7 0.07123435
8 *17:8 0.08551729
9 *17:9 0.0750152
10 *17:10 0.07525814
11 *17:11 0.01578346
12 *17:12 0.07532127
13 *17:13 0.07502446
14 *17:14 0.220408
15 *17:15 0.1553286
16 *17:16 0.01162843

*RES
0 *35:Q *17:16 1
1 *17:16 *17:15 0.5
2 *17:16 *17:4 0.2825
3 *17:15 *17:14 7.304465
4 *17:13 *17:12 2.394643
5 *17:14 *17:13 0.5
6 *17:14 *17:10 3.257143
7 *17:11 *73:A1 0.274
8 *17:12 *17:11 1
9 *17:9 *17:8 2.690179
10 *17:10 *17:9 0.5
11 *17:10 *17:5 0.5428572
12 *17:6 *72:A 1
13 *17:7 *17:6 1.333036
14 *17:8 *17:7 0.2714286
15 *17:5 *17 5.010714

*END

*D_NET *18 0.9827797 //LENGTH 12.440 LUMPCC 0 DR

*CONN
*I *36:Q O *L 0 *C 9.296 9.296
*I *75:A1 I *L 0.530816 *C 7.168 7.776
*I *74:A I *L 1.976759 *C 2.937 8.232
*P *18 O *L 0 *C 0.258 9.296
*N *18:4 *C 3.050 9.296
*N *18:5 *C 3.064 9.283
*N *18:6 *C 3.052 8.232
*N *18:7 *C 3.064 8.245
*N *18:8 *C 3.064 8.688
*N *18:9 *C 3.078 8.688
*N *18:10 *C 7.168 7.790
*N *18:11 *C 7.168 8.675
*N *18:12 *C 7.168 8.689
*N *18:13 *C 7.168 8.992
*N *18:14 *C 9.283 8.992
*N *18:15 *C 9.296 9.005
*N *18:16 *C 9.296 9.283

*CAP
0 *36:Q 0.001
1 *75:A1 0.001
2 *74:A 0.0129672
3 *18 0.1008795
4 *18:4 0.09850726
5 *18:5 0.03169857
6 *18:6 0.0108918
7 *18:7 0.02418429
8 *18:8 0.05795826
9 *18:9 0.1508098
10 *18:10 0.04673946
11 *18:11 0.04817213
12 *18:12 0.1638168
13 *18:13 0.09494572
14 *18:14 0.07956652
15 *18:15 0.03053746
16 *18:16 0.02910478

*RES
0 *36:Q *18:16 1
1 *18:15 *18:14 0.5
2 *18:14 *18:13 3.775893
3 *18:16 *18:15 0.4946429
4 *18:11 *18:10 1.580357
5 *18:12 *18:11 0.5
6 *18:12 *18:9 7.304465
7 *18:10 *75:A1 1
8 *18:8 *18:7 0.7901786
9 *18:8 *18:5 1.061607
10 *18:9 *18:8 0.5
11 *18:6 *74:A 0.1908333
12 *18:7 *18:6 1
13 *18:5 *18:4 0.5
14 *18:4 *18 4.986607
15 *18:13 *18:12 0.5410715

*END

*D_NET *19 1.128502 //LENGTH 14.575 LUMPCC 0 DR

*CONN
*I *37:Q O *L 0 *C 8.232 5.952
*I *76:A I *L 1.976759 *C 3.939 2.456
*I *77:A1 I *L 0.530816 *C 2.379 4.432
*P *19 O *L 0 *C 0.258 6.256
*N *19:4 *C 8.232 5.770
*N *19:5 *C 2.593 4.432
*N *19:6 *C 2.609 4.432
*N *19:7 *C 3.837 2.456
*N *19:8 *C 3.824 2.470
*N *19:9 *C 3.824 4.418
*N *19:10 *C 3.811 4.432
*N *19:11 *C 2.774 4.432
*N *19:12 *C 2.760 4.446
*N *19:13 *C 2.760 6.243
*N *19:14 *C 2.760 6.255
*N *19:15 *C 2.760 5.952
*N *19:16 *C 8.219 5.952
*N *19:17 *C 8.232 5.940

*CAP
0 *37:Q 0.001
1 *76:A 0.01234046
2 *77:A1 0.02084194
3 *19 0.08611361
4 *19:4 0.01259742
5 *19:5 0.01876654
6 *19:6 0.006481514
7 *19:7 0.01026507
8 *19:8 0.08522007
9 *19:9 0.08492325
10 *19:10 0.04304638
11 *19:11 0.04304638
12 *19:12 0.09623049
13 *19:13 0.08767358
14 *19:14 0.09632245
15 *19:15 0.2160828
16 *19:16 0.2011295
17 *19:17 0.006420304

*RES
0 *37:Q *19:17 1
1 *19:17 *19:16 0.5
2 *19:17 *19:4 0.2825
3 *19:16 *19:15 9.747322
4 *19:13 *19:12 3.208929
5 *19:14 *19:13 0.5
6 *19:14 *19 4.467857
7 *19:12 *19:11 0.5
8 *19:12 *19:6 0.2696429
9 *19:11 *19:10 1.851786
10 *19:9 *19:8 3.480357
11 *19:10 *19:9 0.5
12 *19:7 *76:A 0.17
13 *19:8 *19:7 1
14 *19:5 *77:A1 0.428
15 *19:6 *19:5 1
16 *19:15 *19:14 0.5410715

*END

*D_NET *20 0.9062535 //LENGTH 10.467 LUMPCC 0 DR

*CONN
*I *38:Q O *L 0 *C 8.536 4.736
*I *78:A3 I *L 0.560691 *C 7.472 3.520
*I *76:CI I *L 1.474751 *C 4.128 3.064
*P *20 O *L 0 *C 0.258 3.520
*N *20:4 *C 4.128 3.078
*N *20:5 *C 4.128 3.506
*N *20:6 *C 4.128 3.520
*N *20:7 *C 7.472 3.338
*N *20:8 *C 7.472 3.508
*N *20:9 *C 7.472 3.520
*N *20:10 *C 8.523 3.520
*N *20:11 *C 8.536 3.534
*N *20:12 *C 8.536 4.723

*CAP
0 *38:Q 0.001
1 *78:A3 0.001
2 *76:CI 0.001
3 *20 0.1382952
4 *20:4 0.02323481
5 *20:5 0.02466749
6 *20:6 0.2901444
7 *20:7 0.0176929
8 *20:8 0.01151579
9 *20:9 0.1991279
10 *20:10 0.04490651
11 *20:11 0.0775506
12 *20:12 0.07611793

*RES
0 *38:Q *20:12 1
1 *20:11 *20:10 0.5
2 *20:10 *20:9 1.875893
3 *20:12 *20:11 2.123214
4 *20:8 *78:A3 1
5 *20:8 *20:7 0.2825
6 *20:9 *20:8 0.5
7 *20:9 *20:6 5.971428
8 *20:5 *20:4 0.7660715
9 *20:6 *20:5 0.5
10 *20:6 *20 6.910714
11 *20:4 *76:CI 1

*END

*D_NET *79 0.2482881 //LENGTH 3.370 LUMPCC 0 DR

*CONN
*I *49:Y O *L 0 *C 10.360 4.888
*I *23:D I *L 0.558146 *C 8.840 6.408
*N *79:2 *C 8.840 6.395
*N *79:3 *C 8.840 5.662
*N *79:4 *C 8.854 5.648
*N *79:5 *C 10.347 5.648
*N *79:6 *C 10.360 5.635
*N *79:7 *C 10.360 4.902

*CAP
0 *49:Y 0.001
1 *23:D 0.001
2 *79:2 0.03638913
3 *79:3 0.03782181
4 *79:4 0.05426228
5 *79:5 0.05426228
6 *79:6 0.03249263
7 *79:7 0.03105995

*RES
0 *49:Y *79:7 1
1 *79:2 *23:D 1
2 *79:3 *79:2 1.308929
3 *79:4 *79:3 0.5
4 *79:6 *79:5 0.5
5 *79:5 *79:4 2.666071
6 *79:7 *79:6 1.308929

*END

*D_NET *80 0.3961318 //LENGTH 3.990 LUMPCC 0 DR

*CONN
*I *51:Y O *L 0 *C 17.975 4.888
*I *24:D I *L 0.558146 *C 19.921 3.064
*N *80:2 *C 19.191 3.064
*N *80:3 *C 19.176 3.078
*N *80:4 *C 19.176 4.875
*N *80:5 *C 19.161 4.888

*CAP
0 *51:Y 0.06541052
1 *24:D 0.04849798
2 *80:2 0.04642259
3 *80:3 0.08623279
4 *80:4 0.08623279
5 *80:5 0.06333511

*RES
0 *51:Y *80:5 2.372
1 *80:2 *24:D 1.46
2 *80:3 *80:2 1
3 *80:5 *80:4 1
4 *80:4 *80:3 3.208929

*END

*D_NET *81 0.2264572 //LENGTH 2.021 LUMPCC 0 DR

*CONN
*I *53:Y O *L 0 *C 18.720 5.800
*I *25:D I *L 0.558146 *C 19.906 6.408
*N *81:2 *C 18.872 6.408
*N *81:3 *C 18.872 6.407
*N *81:4 *C 18.872 6.256
*N *81:5 *C 18.720 6.256
*N *81:6 *C 18.720 5.814

*CAP
0 *53:Y 0.001
1 *25:D 0.06843839
2 *81:2 0.07571146
3 *81:3 0.008198265
4 *81:4 0.01896804
5 *81:5 0.03332016
6 *81:6 0.0208209

*RES
0 *53:Y *81:6 1
1 *81:2 *25:D 2.068
2 *81:3 *81:2 1
3 *81:6 *81:5 0.7901786
4 *81:5 *81:4 0.2714286
5 *81:4 *81:3 0.2696429

*END

*D_NET *82 0.1808558 //LENGTH 1.680 LUMPCC 0 DR

*CONN
*I *55:Y O *L 0 *C 19.054 8.232
*I *26:D I *L 0.558146 *C 19.906 7.624
*N *82:2 *C 19.343 7.624
*N *82:3 *C 19.328 7.638
*N *82:4 *C 19.328 8.219
*N *82:5 *C 19.313 8.232

*CAP
0 *55:Y 0.02294795
1 *26:D 0.03904909
2 *82:2 0.0369737
3 *82:3 0.03050626
4 *82:4 0.03050626
5 *82:5 0.02087255

*RES
0 *55:Y *82:5 0.518
1 *82:2 *26:D 1.126
2 *82:3 *82:2 1
3 *82:5 *82:4 1
4 *82:4 *82:3 1.0375

*END

*D_NET *83 0.2594641 //LENGTH 3.375 LUMPCC 0 DR

*CONN
*I *57:Y O *L 0 *C 18.720 9.144
*I *27:D I *L 0.558146 *C 19.936 10.968
*N *83:2 *C 19.936 10.956
*N *83:3 *C 19.936 10.816
*N *83:4 *C 19.922 10.816
*N *83:5 *C 18.733 10.816
*N *83:6 *C 18.720 10.803
*N *83:7 *C 18.720 9.158

*CAP
0 *57:Y 0.001
1 *27:D 0.001
2 *83:2 0.008363878
3 *83:3 0.009796557
4 *83:4 0.047008
5 *83:5 0.047008
6 *83:6 0.07336015
7 *83:7 0.07192747

*RES
0 *57:Y *83:7 1
1 *83:2 *27:D 1
2 *83:3 *83:2 0.2325
3 *83:4 *83:3 0.5
4 *83:6 *83:5 0.5
5 *83:5 *83:4 2.123214
6 *83:7 *83:6 2.9375

*END

*D_NET *84 0.2273302 //LENGTH 2.457 LUMPCC 0 DR

*CONN
*I *59:Y O *L 0 *C 15.541 9.144
*I *28:D I *L 0.558146 *C 15.954 10.968
*N *84:2 *C 15.695 10.968
*N *84:3 *C 15.680 10.955
*N *84:4 *C 15.680 9.158
*N *84:5 *C 15.668 9.144

*CAP
0 *59:Y 0.01563651
1 *28:D 0.01870411
2 *84:2 0.01662871
3 *84:3 0.08139987
4 *84:4 0.08139987
5 *84:5 0.01356112

*RES
0 *59:Y *84:5 0.2116667
1 *84:2 *28:D 0.5180001
2 *84:3 *84:2 1
3 *84:5 *84:4 1
4 *84:4 *84:3 3.208929

*END

*D_NET *85 0.7420618 //LENGTH 7.390 LUMPCC 0 DR

*CONN
*I *61:Y O *L 0 *C 11.564 12.488
*I *29:D I *L 0.558146 *C 9.114 16.440
*N *85:2 *C 8.855 16.440
*N *85:3 *C 8.840 16.427
*N *85:4 *C 8.840 13.261
*N *85:5 *C 8.854 13.248
*N *85:6 *C 11.411 13.248
*N *85:7 *C 11.424 13.235
*N *85:8 *C 11.424 12.502
*N *85:9 *C 11.437 12.488

*CAP
0 *61:Y 0.01585202
1 *29:D 0.02103162
2 *85:2 0.01895622
3 *85:3 0.1541985
4 *85:4 0.1539017
5 *85:5 0.1277271
6 *85:6 0.1277271
7 *85:7 0.05429704
8 *85:8 0.05459386
9 *85:9 0.01377662

*RES
0 *61:Y *85:9 0.2116667
1 *85:2 *29:D 0.5180001
2 *85:3 *85:2 1
3 *85:4 *85:3 5.651786
4 *85:5 *85:4 0.5
5 *85:7 *85:6 0.5
6 *85:6 *85:5 4.566072
7 *85:9 *85:8 1
8 *85:8 *85:7 1.308929

*END

*D_NET *86 0.2617695 //LENGTH 2.111 LUMPCC 0 DR

*CONN
*I *63:Y O *L 0 *C 10.026 12.488
*I *30:D I *L 0.558146 *C 9.600 10.968
*N *86:2 *C 9.600 10.982
*N *86:3 *C 9.600 12.475
*N *86:4 *C 9.615 12.488

*CAP
0 *63:Y 0.03327317
1 *30:D 0.001
2 *86:2 0.09728454
3 *86:3 0.09901403
4 *86:4 0.03119778

*RES
0 *63:Y *86:4 0.8220001
1 *86:2 *30:D 1
2 *86:4 *86:3 1
3 *86:3 *86:2 2.666071

*END

*D_NET *87 0.4387565 //LENGTH 5.376 LUMPCC 0 DR

*CONN
*I *65:Y O *L 0 *C 12.032 19.176
*I *31:D I *L 0.558146 *C 9.114 17.656
*N *87:2 *C 8.855 17.656
*N *87:3 *C 8.840 17.669
*N *87:4 *C 8.840 19.011
*N *87:5 *C 8.854 19.024
*N *87:6 *C 12.019 19.024
*N *87:7 *C 12.032 19.024
*N *87:8 *C 12.032 19.164

*CAP
0 *65:Y 0.001
1 *31:D 0.01987567
2 *87:2 0.01780027
3 *87:3 0.06856325
4 *87:4 0.06826643
5 *87:5 0.1230508
6 *87:6 0.1230508
7 *87:7 0.009290941
8 *87:8 0.007858262

*RES
0 *65:Y *87:8 1
1 *87:2 *31:D 0.5180001
2 *87:3 *87:2 1
3 *87:4 *87:3 2.394643
4 *87:5 *87:4 0.5
5 *87:7 *87:6 0.5
6 *87:6 *87:5 5.651786
7 *87:8 *87:7 0.2325

*END

*D_NET *88 0.511052 //LENGTH 6.263 LUMPCC 0 DR

*CONN
*I *67:Y O *L 0 *C 8.384 15.832
*I *32:D I *L 0.558146 *C 9.144 21.000
*N *88:2 *C 9.144 20.988
*N *88:3 *C 9.144 20.848
*N *88:4 *C 9.130 20.848
*N *88:5 *C 8.398 20.848
*N *88:6 *C 8.384 20.835
*N *88:7 *C 8.384 15.846

*CAP
0 *67:Y 0.001